2023-12-25 09:19:38.675228: I tensorflow/core/platform/cpu_feature_guard.cc:182] This TensorFlow binary is optimized to use available CPU instructions in performance-critical operations.
To enable the following instructions: AVX2 FMA, in other operations, rebuild TensorFlow with the appropriate compiler flags.
2023-12-25 09:19:38.675228: I tensorflow/core/platform/cpu_feature_guard.cc:182] This TensorFlow binary is optimized to use available CPU instructions in performance-critical operations.
To enable the following instructions: AVX2 FMA, in other operations, rebuild TensorFlow with the appropriate compiler flags.
2023-12-25 09:19:38.676012: I tensorflow/core/platform/cpu_feature_guard.cc:182] This TensorFlow binary is optimized to use available CPU instructions in performance-critical operations.
To enable the following instructions: AVX2 FMA, in other operations, rebuild TensorFlow with the appropriate compiler flags.
2023-12-25 09:19:38.676192: I tensorflow/core/platform/cpu_feature_guard.cc:182] This TensorFlow binary is optimized to use available CPU instructions in performance-critical operations.
To enable the following instructions: AVX2 FMA, in other operations, rebuild TensorFlow with the appropriate compiler flags.
 
-------------------------------------------------------------------------------
|                               DAFoam v3.0.7                                 |
-------------------------------------------------------------------------------
 
/*---------------------------------------------------------------------------*\
| =========                 |                                                 |
| \\      /  F ield         | OpenFOAM: The Open Source CFD Toolbox           |
|  \\    /   O peration     | Version:  v1812                                 |
|   \\  /    A nd           | Web:      www.OpenFOAM.com                      |
|    \\/     M anipulation  |                                                 |
\*---------------------------------------------------------------------------*/
Build  : v1812 OPENFOAM=1812
Arch   : "LSB;label=32;scalar=64"
Exec   : decomposePar
Date   : Dec 25 2023
Time   : 09:19:41
Host   : a7d3b436724d
PID    : 946
I/O    : uncollated
Case   : /home/dafoamuser/mount
nProcs : 1
trapFpe: Floating point exception trapping enabled (FOAM_SIGFPE).
fileModificationChecking : Monitoring run-time modified files using timeStampMaster (fileModificationSkew 10)
allowSystemOperations : Allowing user-supplied system call operations

// * * * * * * * * * * * * * * * * * * * * * * * * * * * * * * * * * * * * * //
Create time

Overriding DebugSwitches according to controlDict
    SolverPerformance 0;



Decomposing mesh region0

Create mesh

Calculating distribution of cells
Selecting decompositionMethod scotch [4]

Finished decomposition in 0 s

Calculating original mesh data

Distributing cells to processors

Distributing faces to processors

Distributing points to processors

Constructing processor meshes
Overriding DebugSwitches according to controlDict
    SolverPerformance 0;


Processor 0
    Number of cells = 288
    Number of faces shared with processor 1 = 26
    Number of faces shared with processor 3 = 11
    Number of processor patches = 2
    Number of processor faces = 37
    Number of boundary faces = 613
Overriding DebugSwitches according to controlDict
    SolverPerformance 0;


Processor 1
    Number of cells = 288
    Number of faces shared with processor 0 = 26
    Number of faces shared with processor 2 = 12
    Number of faces shared with processor 3 = 1
    Number of processor patches = 3
    Number of processor faces = 39
    Number of boundary faces = 611
Overriding DebugSwitches according to controlDict
    SolverPerformance 0;


Processor 2
    Number of cells = 288
    Number of faces shared with processor 1 = 12
    Number of faces shared with processor 3 = 24
    Number of processor patches = 2
    Number of processor faces = 36
    Number of boundary faces = 612
Overriding DebugSwitches according to controlDict
    SolverPerformance 0;


Processor 3
    Number of cells = 288
    Number of faces shared with processor 0 = 11
    Number of faces shared with processor 1 = 1
    Number of faces shared with processor 2 = 24
    Number of processor patches = 3
    Number of processor faces = 36
    Number of boundary faces = 612

Number of processor faces = 74
Max number of cells = 288 (0% above average 288)
Max number of processor patches = 3 (20% above average 2.5)
Max number of faces between processors = 39 (5.405405405405405% above average 37)

Time = 0

Processor 0: field transfer
Overriding DebugSwitches according to controlDict
    SolverPerformance 0;

Processor 1: field transfer
Overriding DebugSwitches according to controlDict
    SolverPerformance 0;

Processor 2: field transfer
Overriding DebugSwitches according to controlDict
    SolverPerformance 0;

Processor 3: field transfer
Overriding DebugSwitches according to controlDict
    SolverPerformance 0;


End

I/O    : uncollated
Case   : /home/dafoamuser/mount
nProcs : 4
Hosts  :
(
    (a7d3b436724d 4)
)
Pstream initialized with:
    floatTransfer      : 0
    nProcsSimpleSum    : 0
    commsType          : nonBlocking
    polling iterations : 0
Create time

Overriding DebugSwitches according to controlDict
    SolverPerformance 0;

Create mesh for time = 0
Initializing mesh and runtime for DASolver
DAOpton initialized 
I/O    : uncollated
Case   : /home/dafoamuser/mount
nProcs : 4
Hosts  :
(
    (a7d3b436724d 4)
)
Pstream initialized with:
    floatTransfer      : 0
    nProcsSimpleSum    : 0
    commsType          : nonBlocking
    polling iterations : 0
Create time

Overriding DebugSwitches according to controlDict
    SolverPerformance 0;

Create mesh for time = 0
Initializing mesh and runtime for DASolver
DAOpton initialized 
Initializing fields for DASimpleFoam
Create simpleControl.

SIMPLE: no convergence criteria found. Calculations will run for 3000 steps.

Reading field p

Reading field U

Reading/calculating face flux field phi

Creating source term. 
Selecting incompressible transport model Newtonian
Selecting turbulence model type RAS
Selecting RAS turbulence model dummy
No MRF models present

Adjoint States: 
3
(
U volVectorState
phi surfaceScalarState
p volScalarState
)
Global Cells: 1152
Global Faces: 4754
Global Xv: 7812
Undecomposed points: 2450
Global Adjoint States: 9362

SIMPLE: no convergence criteria found. Calculations will run for 3000 steps.

DACheckMesh Thresholds: 
maxNonOrth: 70
maxSkewness: 4
maxAspectRatio: 1000
maxIncorrectlyOrientedFaces: 0
    Adding all faces of patches 1(inlet) ...
    Found matching patch inlet with 0 faces.
    Adding all faces of patches 1(outlet) ...
    Found matching patch outlet with 0 faces.
Initializing fields for DASimpleFoam
Create simpleControl.

SIMPLE: no convergence criteria found. Calculations will run for 3000 steps.

Reading field p

Reading field U

Reading/calculating face flux field phi

Creating source term. 
Selecting incompressible transport model Newtonian
Selecting turbulence model type RAS
Selecting RAS turbulence model dummy
No MRF models present

Adjoint States: 
3
(
U volVectorState
phi surfaceScalarState
p volScalarState
)
Global Cells: 1152
Global Faces: 4754
Global Xv: 7812
Undecomposed points: 2450
Global Adjoint States: 9362

SIMPLE: no convergence criteria found. Calculations will run for 3000 steps.

DACheckMesh Thresholds: 
maxNonOrth: 70
maxSkewness: 4
maxAspectRatio: 1000
maxIncorrectlyOrientedFaces: 0
    Adding all faces of patches 1(inlet) ...
    Found matching patch inlet with 0 faces.
    Adding all faces of patches 1(outlet) ...
    Found matching patch outlet with 0 faces.
DAFoam option dictionary: 
{
    solverName      DASimpleFoam;
    primalMinResTol 1e-06;
    primalBC
    {
        U0
        {
            variable        U;
            patches         1 ( inlet );
            value           3 ( 0.1 0 0 );
        }
        p0
        {
            variable        p;
            patches         1 ( outlet );
            value           1 ( 0 );
        }
        nuTilda0
        {
            variable        nuTilda;
            patches         1 ( inlet );
            value           1 ( 0.0001 );
        }
        useWallFunction 1;
    }
    normalizeStates
    {
        U               0.1;
        p               0.005000000000000001;
        nut             0.001;
        phi             1;
    }
    objFunc
    {
        PL
        {
            part1
            {
                type            totalPressure;
                source          patchToFace;
                patches         1 ( inlet );
                scale           200;
                addToAdjoint    1;
            }
            part2
            {
                type            totalPressure;
                source          patchToFace;
                patches         1 ( outlet );
                scale           -200;
                addToAdjoint    1;
            }
        }
    }
    designVar
    {
        alphaPorosity
        {
            designVarType   Field;
            fieldName       alphaPorosity;
            fieldType       scalar;
        }
    }
    designSurfaces  1 ( wallBoundary );
    couplingInfo
    {
        aerostructural
        {
            active          0;
            pRef            0;
            propMovement    0;
            couplingSurfaceGroups
            {
                wingGroup       2 ( wing wing_te );
            }
        }
        aerothermal
        {
            active          0;
            couplingSurfaceGroups
            {
                wallGroup       1 ( fin_wall );
            }
        }
        aeroacoustic
        {
            active          0;
            pRef            0;
            couplingSurfaceGroups
            {
                blade1Group     2 ( blade1_ps blade1_ss );
                blade2Group     1 ( blade2 );
            }
        }
    }
    aeroPropulsive
    {
    }
    primalOnly      0;
    fvSource
    {
    }
    adjEqnSolMethod Krylov;
    primalVarBounds
    {
        UMax            1000;
        UMin            -1000;
        pMax            500000;
        pMin            20000;
        p_rghMax        500000;
        p_rghMin        20000;
        eMax            500000;
        eMin            100000;
        TMax            1000;
        TMin            100;
        hMax            500000;
        hMin            100000;
        DMax            1e+16;
        DMin            -1e+16;
        rhoMax          5;
        rhoMin          0.2;
        nuTildaMax      1e+16;
        nuTildaMin      1e-16;
        kMax            1e+16;
        kMin            1e-16;
        omegaMax        1e+16;
        omegaMin        1e-16;
        epsilonMax      1e+16;
        epsilonMin      1e-16;
        ReThetatMax     1e+16;
        ReThetatMin     1e-16;
        gammaIntMax     1e+16;
        gammaIntMin     1e-16;
    }
    discipline      aero;
    multiPoint      0;
    nMultiPoints    1;
    adjPartDerivFDStep
    {
        State           1e-06;
        FFD             0.001;
        BC              0.01;
        AOA             0.001;
        ACTP            0.01;
        ACTD            0.01;
        ACTL            0.01;
    }
    transonicPCOption -1;
    unsteadyAdjoint
    {
        mode            None;
        nTimeInstances  -1;
        periodicity     -1;
    }
    objFuncAvgStart 1;
    adjPCLag        5;
    useAD
    {
        mode            reverse;
        dvName          None;
        seedIndex       -9999;
    }
    rigidBodyMotion
    {
        mode            dummy;
    }
    hasIterativeBC  0;
    runStatus       None;
    printPYDAFOAMOptions 0;
    printDAOptions  1;
    debug           0;
    writeJacobians  1 ( None );
    printInterval   100;
    printIntervalUnsteady 500;
    primalMinResTolDiff 10000;
    adjUseColoring  1;
    adjEqnOption
    {
        globalPCIters   0;
        asmOverlap      1;
        localPCIters    1;
        jacMatReOrdering rcm;
        pcFillLevel     1;
        gmresMaxIters   2000;
        gmresRestart    2000;
        gmresRelTol     1e-06;
        gmresAbsTol     1e-14;
        gmresTolDiff    100;
        useNonZeroInitGuess 0;
        useMGSO         0;
        printInfo       1;
        fpMaxIters      1000;
        fpRelTol        1e-06;
        fpMinResTolDiff 100;
        fpPCUpwind      0;
        dynAdjustTol    1;
    }
    normalizeResiduals 10 ( URes pRes p_rghRes nuTildaRes phiRes TRes DRes kRes omegaRes epsilonRes );
    maxResConLv4JacPCMat
    {
        pRes            2;
        phiRes          1;
        URes            2;
        TRes            2;
        nuTildaRes      2;
        kRes            2;
        epsilonRes      2;
        omegaRes        2;
        p_rghRes        2;
        DRes            2;
    }
    jacLowerBounds
    {
        dRdW            1e-30;
        dRdWPC          1e-30;
    }
    maxTractionBCIters 100;
    decomposeParDict
    {
        method          scotch;
        simpleCoeffs
        {
            n               3 ( 2 2 1 );
            delta           0.001;
        }
        preservePatches 1 ( None );
        singleProcessorFaceSets 1 ( None );
    }
    adjStateOrdering state;
    meshSurfaceFamily None;
    checkMeshThreshold
    {
        maxAspectRatio  1000;
        maxNonOrth      70;
        maxSkewness     4;
        maxIncorrectlyOrientedFaces 0;
    }
    writeSensMap    1 ( NONE );
    writeDeformedFFDs 0;
    maxCorrectBCCalls 10;
    writeMinorIterations 0;
    runLowOrderPrimal4PC
    {
        active          0;
    }
    wingProp
    {
        test_propeller_default
        {
            active          0;
            nForceSections  10;
            axis            3 ( 1 0 0 );
            rotationCenter  3 { 0 };
            actEps          0.02;
            rotDir          right;
            interpScheme    Poly4Gauss;
            bladeName       blade;
        }
    }
    primalMinIters  -1;
    tensorflow
    {
        active          0;
        modelName       model;
        nInputs         1;
        nOutputs        1;
        batchSize       1000;
    }
}

Reading OpenFOAM mesh information...
I/O    : uncollated
Case   : /home/dafoamuser/mount
nProcs : 4
Hosts  :
(
    (a7d3b436724d 4)
)
Pstream initialized with:
    floatTransfer      : 0
    nProcsSimpleSum    : 0
    commsType          : nonBlocking
    polling iterations : 0
Reading the OpenFOAM mesh..
Overriding DebugSwitches according to controlDict
    SolverPerformance 0;

Finalising parallel run
Checking if we need to compress the mesh files
Checking if we need to compress the mesh files
I/O    : uncollated
000000000000000000000000000000000000000000000000000000000000000000000000000000000000000000000000000
111111111111111111111111111111111111111111111111111111111111111111111111111111111111111111111111111
000000000000000000000000000000000000000000000000000000000000000000000000000000000000000000000000000
111111111111111111111111111111111111111111111111111111111111111111111111111111111111111111111111111
pyDAFoam initialization done!
000000000000000000000000000000000000000000000000000000000000000000000000000000000000000000000000000
111111111111111111111111111111111111111111111111111111111111111111111111111111111111111111111111111
000000000000000000000000000000000000000000000000000000000000000000000000000000000000000000000000000
111111111111111111111111111111111111111111111111111111111111111111111111111111111111111111111111111
+----------------------------------------+
|          All IDWarp Options:           |
+----------------------------------------+
{'LdefFact': 1.0,
 'aExp': 3.0,
 'alpha': 0.25,
 'bExp': 5.0,
 'bucketSize': 8,
 'cornerAngle': 30.0,
 'errTol': 0.0005,
 'evalMode': 'fast',
 'fileType': 'OpenFOAM',
 'gridFile': '/home/dafoamuser/mount',
 'restartFile': None,
 'specifiedSurfaces': None,
 'symmTol': 1e-06,
 'symmetryPlanes': [[[0.0, 0.0, -0.0005], [0.0, 0.0, 1.0]],
                    [[0.0, 0.0, 0.0005], [0.0, 0.0, 1.0]]],
 'symmetrySurfaces': None,
 'useRotations': True,
 'zeroCornerRotations': True}
I/O    : uncollated
Case   : /home/dafoamuser/mount
nProcs : 4
Hosts  :
(
    (a7d3b436724d 4)
)
Pstream initialized with:
    floatTransfer      : 0
    nProcsSimpleSum    : 0
    commsType          : nonBlocking
    polling iterations : 0
Reading the OpenFOAM mesh..
Overriding DebugSwitches according to controlDict
    SolverPerformance 0;

Finalising parallel run
Checking if we need to compress the mesh files
Checking if we need to compress the mesh files
#------------------------------#
 Total Volume Nodes :      2604 
#------------------------------#
I/O    : uncollated
222222222222222222222222222222222222222222222222222222222222222222222222222222222222222222222222222222
222222222222222222222222222222222222222222222222222222222222222222222222222222222222222222222222222222
222222222222222222222222222222222222222222222222222222222222222222222222222222222222222222222222222222
222222222222222222222222222222222222222222222222222222222222222222222222222222222222222222222222222222
OrderedDict([('frontAndBack', [0]), ('inlet', [1]), ('outlet', [2]), ('procBoundary0to1', [3]), ('procBoundary0to3', [4]), ('symmetricBoundary', [5]), ('wallBoundary', [6]), ('allSurfaces', [0, 1, 2, 3, 4, 5, 6]), ('allWalls', [6]), ('designSurfaces', [6])])
3333333333333333333333333333333333333333333333333333333333333333333333333333333333333333333333333333333333333333
3333333333333333333333333333333333333333333333333333333333333333333333333333333333333333333333333333333333333333
3333333333333333333333333333333333333333333333333333333333333333333333333333333333333333333333333333333333333333
3333333333333333333333333333333333333333333333333333333333333333333333333333333333333333333333333333333333333333
+-------------------- Symmetry Planes -------------------+
|           Point                        Normal          |
| (  0.000   0.000  -0.001)    (  0.000   0.000   1.000) |
| (  0.000   0.000   0.001)    (  0.000   0.000   1.000) |
+--------------------------------------------------------+
#--------------------------------#
 Unique Surface Nodes :       130 
#--------------------------------#
 Computing Denomenator Estimate...
 Load Balancing...
444444444444444444444444444444444444444444444444444444444444444444444444444444444444444444444444444444444444444444
444444444444444444444444444444444444444444444444444444444444444444444444444444444444444444444444444444444444444444
444444444444444444444444444444444444444444444444444444444444444444444444444444444444444444444444444444444444444444
55555555555555555555555555555555555555555555555555555555555555555555555555555555555555555555555555555555555555555555
 Finished Mesh Initialization.
55555555555555555555555555555555555555555555555555555555555555555555555555555555555555555555555555555555555555555555
55555555555555555555555555555555555555555555555555555555555555555555555555555555555555555555555555555555555555555555
444444444444444444444444444444444444444444444444444444444444444444444444444444444444444444444444444444444444444444
55555555555555555555555555555555555555555555555555555555555555555555555555555555555555555555555555555555555555555555


Optimization Problem -- opt
================================================================================
    Objective Function: calcObjFuncValues


   Objectives
      Index  Name            Value
          0  PL     0.000000E+00

   Variables (c - continuous, i - integer, d - discrete)
      Index  Name                 Type      Lower Bound            Value      Upper Bound     Status
          0  alphaPorosity_0         c     0.000000E+00   0.000000E+00+0.000000E+00j     1.000000E+00          l
          1  alphaPorosity_1         c     0.000000E+00   0.000000E+00+0.000000E+00j     1.000000E+00          l
          2  alphaPorosity_2         c     0.000000E+00   0.000000E+00+0.000000E+00j     1.000000E+00          l
          3  alphaPorosity_3         c     0.000000E+00   0.000000E+00+0.000000E+00j     1.000000E+00          l
          4  alphaPorosity_4         c     0.000000E+00   0.000000E+00+0.000000E+00j     1.000000E+00          l
          5  alphaPorosity_5         c     0.000000E+00   0.000000E+00+0.000000E+00j     1.000000E+00          l
          6  alphaPorosity_6         c     0.000000E+00   0.000000E+00+0.000000E+00j     1.000000E+00          l
          7  alphaPorosity_7         c     0.000000E+00   0.000000E+00+0.000000E+00j     1.000000E+00          l
          8  alphaPorosity_8         c     0.000000E+00   0.000000E+00+0.000000E+00j     1.000000E+00          l
          9  alphaPorosity_9         c     0.000000E+00   0.000000E+00+0.000000E+00j     1.000000E+00          l
         10  alphaPorosity_10        c     0.000000E+00   0.000000E+00+0.000000E+00j     1.000000E+00          l
         11  alphaPorosity_11        c     0.000000E+00   0.000000E+00+0.000000E+00j     1.000000E+00          l
         12  alphaPorosity_12        c     0.000000E+00   0.000000E+00+0.000000E+00j     1.000000E+00          l
         13  alphaPorosity_13        c     0.000000E+00   0.000000E+00+0.000000E+00j     1.000000E+00          l
         14  alphaPorosity_14        c     0.000000E+00   0.000000E+00+0.000000E+00j     1.000000E+00          l
         15  alphaPorosity_15        c     0.000000E+00   0.000000E+00+0.000000E+00j     1.000000E+00          l
         16  alphaPorosity_16        c     0.000000E+00   0.000000E+00+0.000000E+00j     1.000000E+00          l
         17  alphaPorosity_17        c     0.000000E+00   0.000000E+00+0.000000E+00j     1.000000E+00          l
         18  alphaPorosity_18        c     0.000000E+00   0.000000E+00+0.000000E+00j     1.000000E+00          l
         19  alphaPorosity_19        c     0.000000E+00   0.000000E+00+0.000000E+00j     1.000000E+00          l
         20  alphaPorosity_20        c     0.000000E+00   0.000000E+00+0.000000E+00j     1.000000E+00          l
         21  alphaPorosity_21        c     0.000000E+00   0.000000E+00+0.000000E+00j     1.000000E+00          l
         22  alphaPorosity_22        c     0.000000E+00   0.000000E+00+0.000000E+00j     1.000000E+00          l
         23  alphaPorosity_23        c     0.000000E+00   0.000000E+00+0.000000E+00j     1.000000E+00          l
         24  alphaPorosity_24        c     0.000000E+00   0.000000E+00+0.000000E+00j     1.000000E+00          l
         25  alphaPorosity_25        c     0.000000E+00   0.000000E+00+0.000000E+00j     1.000000E+00          l
         26  alphaPorosity_26        c     0.000000E+00   0.000000E+00+0.000000E+00j     1.000000E+00          l
         27  alphaPorosity_27        c     0.000000E+00   0.000000E+00+0.000000E+00j     1.000000E+00          l
         28  alphaPorosity_28        c     0.000000E+00   0.000000E+00+0.000000E+00j     1.000000E+00          l
         29  alphaPorosity_29        c     0.000000E+00   0.000000E+00+0.000000E+00j     1.000000E+00          l
         30  alphaPorosity_30        c     0.000000E+00   0.000000E+00+0.000000E+00j     1.000000E+00          l
         31  alphaPorosity_31        c     0.000000E+00   0.000000E+00+0.000000E+00j     1.000000E+00          l
         32  alphaPorosity_32        c     0.000000E+00   0.000000E+00+0.000000E+00j     1.000000E+00          l
         33  alphaPorosity_33        c     0.000000E+00   0.000000E+00+0.000000E+00j     1.000000E+00          l
         34  alphaPorosity_34        c     0.000000E+00   0.000000E+00+0.000000E+00j     1.000000E+00          l
         35  alphaPorosity_35        c     0.000000E+00   0.000000E+00+0.000000E+00j     1.000000E+00          l
         36  alphaPorosity_36        c     0.000000E+00   0.000000E+00+0.000000E+00j     1.000000E+00          l
         37  alphaPorosity_37        c     0.000000E+00   0.000000E+00+0.000000E+00j     1.000000E+00          l
         38  alphaPorosity_38        c     0.000000E+00   0.000000E+00+0.000000E+00j     1.000000E+00          l
         39  alphaPorosity_39        c     0.000000E+00   0.000000E+00+0.000000E+00j     1.000000E+00          l
         40  alphaPorosity_40        c     0.000000E+00   0.000000E+00+0.000000E+00j     1.000000E+00          l
         41  alphaPorosity_41        c     0.000000E+00   0.000000E+00+0.000000E+00j     1.000000E+00          l
         42  alphaPorosity_42        c     0.000000E+00   0.000000E+00+0.000000E+00j     1.000000E+00          l
         43  alphaPorosity_43        c     0.000000E+00   0.000000E+00+0.000000E+00j     1.000000E+00          l
         44  alphaPorosity_44        c     0.000000E+00   0.000000E+00+0.000000E+00j     1.000000E+00          l
         45  alphaPorosity_45        c     0.000000E+00   0.000000E+00+0.000000E+00j     1.000000E+00          l
         46  alphaPorosity_46        c     0.000000E+00   0.000000E+00+0.000000E+00j     1.000000E+00          l
         47  alphaPorosity_47        c     0.000000E+00   0.000000E+00+0.000000E+00j     1.000000E+00          l
         48  alphaPorosity_48        c     0.000000E+00   0.000000E+00+0.000000E+00j     1.000000E+00          l
         49  alphaPorosity_49        c     0.000000E+00   0.000000E+00+0.000000E+00j     1.000000E+00          l
         50  alphaPorosity_50        c     0.000000E+00   0.000000E+00+0.000000E+00j     1.000000E+00          l
         51  alphaPorosity_51        c     0.000000E+00   0.000000E+00+0.000000E+00j     1.000000E+00          l
         52  alphaPorosity_52        c     0.000000E+00   0.000000E+00+0.000000E+00j     1.000000E+00          l
         53  alphaPorosity_53        c     0.000000E+00   0.000000E+00+0.000000E+00j     1.000000E+00          l
         54  alphaPorosity_54        c     0.000000E+00   0.000000E+00+0.000000E+00j     1.000000E+00          l
         55  alphaPorosity_55        c     0.000000E+00   0.000000E+00+0.000000E+00j     1.000000E+00          l
         56  alphaPorosity_56        c     0.000000E+00   0.000000E+00+0.000000E+00j     1.000000E+00          l
         57  alphaPorosity_57        c     0.000000E+00   0.000000E+00+0.000000E+00j     1.000000E+00          l
         58  alphaPorosity_58        c     0.000000E+00   0.000000E+00+0.000000E+00j     1.000000E+00          l
         59  alphaPorosity_59        c     0.000000E+00   0.000000E+00+0.000000E+00j     1.000000E+00          l
         60  alphaPorosity_60        c     0.000000E+00   0.000000E+00+0.000000E+00j     1.000000E+00          l
         61  alphaPorosity_61        c     0.000000E+00   0.000000E+00+0.000000E+00j     1.000000E+00          l
         62  alphaPorosity_62        c     0.000000E+00   0.000000E+00+0.000000E+00j     1.000000E+00          l
         63  alphaPorosity_63        c     0.000000E+00   0.000000E+00+0.000000E+00j     1.000000E+00          l
         64  alphaPorosity_64        c     0.000000E+00   0.000000E+00+0.000000E+00j     1.000000E+00          l
         65  alphaPorosity_65        c     0.000000E+00   0.000000E+00+0.000000E+00j     1.000000E+00          l
         66  alphaPorosity_66        c     0.000000E+00   0.000000E+00+0.000000E+00j     1.000000E+00          l
         67  alphaPorosity_67        c     0.000000E+00   0.000000E+00+0.000000E+00j     1.000000E+00          l
         68  alphaPorosity_68        c     0.000000E+00   0.000000E+00+0.000000E+00j     1.000000E+00          l
         69  alphaPorosity_69        c     0.000000E+00   0.000000E+00+0.000000E+00j     1.000000E+00          l
         70  alphaPorosity_70        c     0.000000E+00   0.000000E+00+0.000000E+00j     1.000000E+00          l
         71  alphaPorosity_71        c     0.000000E+00   0.000000E+00+0.000000E+00j     1.000000E+00          l
         72  alphaPorosity_72        c     0.000000E+00   0.000000E+00+0.000000E+00j     1.000000E+00          l
         73  alphaPorosity_73        c     0.000000E+00   0.000000E+00+0.000000E+00j     1.000000E+00          l
         74  alphaPorosity_74        c     0.000000E+00   0.000000E+00+0.000000E+00j     1.000000E+00          l
         75  alphaPorosity_75        c     0.000000E+00   0.000000E+00+0.000000E+00j     1.000000E+00          l
         76  alphaPorosity_76        c     0.000000E+00   0.000000E+00+0.000000E+00j     1.000000E+00          l
         77  alphaPorosity_77        c     0.000000E+00   0.000000E+00+0.000000E+00j     1.000000E+00          l
         78  alphaPorosity_78        c     0.000000E+00   0.000000E+00+0.000000E+00j     1.000000E+00          l
         79  alphaPorosity_79        c     0.000000E+00   0.000000E+00+0.000000E+00j     1.000000E+00          l
         80  alphaPorosity_80        c     0.000000E+00   0.000000E+00+0.000000E+00j     1.000000E+00          l
         81  alphaPorosity_81        c     0.000000E+00   0.000000E+00+0.000000E+00j     1.000000E+00          l
         82  alphaPorosity_82        c     0.000000E+00   0.000000E+00+0.000000E+00j     1.000000E+00          l
         83  alphaPorosity_83        c     0.000000E+00   0.000000E+00+0.000000E+00j     1.000000E+00          l
         84  alphaPorosity_84        c     0.000000E+00   0.000000E+00+0.000000E+00j     1.000000E+00          l
         85  alphaPorosity_85        c     0.000000E+00   0.000000E+00+0.000000E+00j     1.000000E+00          l
         86  alphaPorosity_86        c     0.000000E+00   0.000000E+00+0.000000E+00j     1.000000E+00          l
         87  alphaPorosity_87        c     0.000000E+00   0.000000E+00+0.000000E+00j     1.000000E+00          l
         88  alphaPorosity_88        c     0.000000E+00   0.000000E+00+0.000000E+00j     1.000000E+00          l
         89  alphaPorosity_89        c     0.000000E+00   0.000000E+00+0.000000E+00j     1.000000E+00          l
         90  alphaPorosity_90        c     0.000000E+00   0.000000E+00+0.000000E+00j     1.000000E+00          l
         91  alphaPorosity_91        c     0.000000E+00   0.000000E+00+0.000000E+00j     1.000000E+00          l
         92  alphaPorosity_92        c     0.000000E+00   0.000000E+00+0.000000E+00j     1.000000E+00          l
         93  alphaPorosity_93        c     0.000000E+00   0.000000E+00+0.000000E+00j     1.000000E+00          l
         94  alphaPorosity_94        c     0.000000E+00   0.000000E+00+0.000000E+00j     1.000000E+00          l
         95  alphaPorosity_95        c     0.000000E+00   0.000000E+00+0.000000E+00j     1.000000E+00          l
         96  alphaPorosity_96        c     0.000000E+00   0.000000E+00+0.000000E+00j     1.000000E+00          l
         97  alphaPorosity_97        c     0.000000E+00   0.000000E+00+0.000000E+00j     1.000000E+00          l
         98  alphaPorosity_98        c     0.000000E+00   0.000000E+00+0.000000E+00j     1.000000E+00          l
         99  alphaPorosity_99        c     0.000000E+00   0.000000E+00+0.000000E+00j     1.000000E+00          l
        100  alphaPorosity_100       c     0.000000E+00   0.000000E+00+0.000000E+00j     1.000000E+00          l
        101  alphaPorosity_101       c     0.000000E+00   0.000000E+00+0.000000E+00j     1.000000E+00          l
        102  alphaPorosity_102       c     0.000000E+00   0.000000E+00+0.000000E+00j     1.000000E+00          l
        103  alphaPorosity_103       c     0.000000E+00   0.000000E+00+0.000000E+00j     1.000000E+00          l
        104  alphaPorosity_104       c     0.000000E+00   0.000000E+00+0.000000E+00j     1.000000E+00          l
        105  alphaPorosity_105       c     0.000000E+00   0.000000E+00+0.000000E+00j     1.000000E+00          l
        106  alphaPorosity_106       c     0.000000E+00   0.000000E+00+0.000000E+00j     1.000000E+00          l
        107  alphaPorosity_107       c     0.000000E+00   0.000000E+00+0.000000E+00j     1.000000E+00          l
        108  alphaPorosity_108       c     0.000000E+00   0.000000E+00+0.000000E+00j     1.000000E+00          l
        109  alphaPorosity_109       c     0.000000E+00   0.000000E+00+0.000000E+00j     1.000000E+00          l
        110  alphaPorosity_110       c     0.000000E+00   0.000000E+00+0.000000E+00j     1.000000E+00          l
        111  alphaPorosity_111       c     0.000000E+00   0.000000E+00+0.000000E+00j     1.000000E+00          l
        112  alphaPorosity_112       c     0.000000E+00   0.000000E+00+0.000000E+00j     1.000000E+00          l
        113  alphaPorosity_113       c     0.000000E+00   0.000000E+00+0.000000E+00j     1.000000E+00          l
        114  alphaPorosity_114       c     0.000000E+00   0.000000E+00+0.000000E+00j     1.000000E+00          l
        115  alphaPorosity_115       c     0.000000E+00   0.000000E+00+0.000000E+00j     1.000000E+00          l
        116  alphaPorosity_116       c     0.000000E+00   0.000000E+00+0.000000E+00j     1.000000E+00          l
        117  alphaPorosity_117       c     0.000000E+00   0.000000E+00+0.000000E+00j     1.000000E+00          l
        118  alphaPorosity_118       c     0.000000E+00   0.000000E+00+0.000000E+00j     1.000000E+00          l
        119  alphaPorosity_119       c     0.000000E+00   0.000000E+00+0.000000E+00j     1.000000E+00          l
        120  alphaPorosity_120       c     0.000000E+00   0.000000E+00+0.000000E+00j     1.000000E+00          l
        121  alphaPorosity_121       c     0.000000E+00   0.000000E+00+0.000000E+00j     1.000000E+00          l
        122  alphaPorosity_122       c     0.000000E+00   0.000000E+00+0.000000E+00j     1.000000E+00          l
        123  alphaPorosity_123       c     0.000000E+00   0.000000E+00+0.000000E+00j     1.000000E+00          l
        124  alphaPorosity_124       c     0.000000E+00   0.000000E+00+0.000000E+00j     1.000000E+00          l
        125  alphaPorosity_125       c     0.000000E+00   0.000000E+00+0.000000E+00j     1.000000E+00          l
        126  alphaPorosity_126       c     0.000000E+00   0.000000E+00+0.000000E+00j     1.000000E+00          l
        127  alphaPorosity_127       c     0.000000E+00   0.000000E+00+0.000000E+00j     1.000000E+00          l
        128  alphaPorosity_128       c     0.000000E+00   0.000000E+00+0.000000E+00j     1.000000E+00          l
        129  alphaPorosity_129       c     0.000000E+00   0.000000E+00+0.000000E+00j     1.000000E+00          l
        130  alphaPorosity_130       c     0.000000E+00   0.000000E+00+0.000000E+00j     1.000000E+00          l
        131  alphaPorosity_131       c     0.000000E+00   0.000000E+00+0.000000E+00j     1.000000E+00          l
        132  alphaPorosity_132       c     0.000000E+00   0.000000E+00+0.000000E+00j     1.000000E+00          l
        133  alphaPorosity_133       c     0.000000E+00   0.000000E+00+0.000000E+00j     1.000000E+00          l
        134  alphaPorosity_134       c     0.000000E+00   0.000000E+00+0.000000E+00j     1.000000E+00          l
        135  alphaPorosity_135       c     0.000000E+00   0.000000E+00+0.000000E+00j     1.000000E+00          l
        136  alphaPorosity_136       c     0.000000E+00   0.000000E+00+0.000000E+00j     1.000000E+00          l
        137  alphaPorosity_137       c     0.000000E+00   0.000000E+00+0.000000E+00j     1.000000E+00          l
        138  alphaPorosity_138       c     0.000000E+00   0.000000E+00+0.000000E+00j     1.000000E+00          l
        139  alphaPorosity_139       c     0.000000E+00   0.000000E+00+0.000000E+00j     1.000000E+00          l
        140  alphaPorosity_140       c     0.000000E+00   0.000000E+00+0.000000E+00j     1.000000E+00          l
        141  alphaPorosity_141       c     0.000000E+00   0.000000E+00+0.000000E+00j     1.000000E+00          l
        142  alphaPorosity_142       c     0.000000E+00   0.000000E+00+0.000000E+00j     1.000000E+00          l
        143  alphaPorosity_143       c     0.000000E+00   0.000000E+00+0.000000E+00j     1.000000E+00          l
        144  alphaPorosity_144       c     0.000000E+00   0.000000E+00+0.000000E+00j     1.000000E+00          l
        145  alphaPorosity_145       c     0.000000E+00   0.000000E+00+0.000000E+00j     1.000000E+00          l
        146  alphaPorosity_146       c     0.000000E+00   0.000000E+00+0.000000E+00j     1.000000E+00          l
        147  alphaPorosity_147       c     0.000000E+00   0.000000E+00+0.000000E+00j     1.000000E+00          l
        148  alphaPorosity_148       c     0.000000E+00   0.000000E+00+0.000000E+00j     1.000000E+00          l
        149  alphaPorosity_149       c     0.000000E+00   0.000000E+00+0.000000E+00j     1.000000E+00          l
        150  alphaPorosity_150       c     0.000000E+00   0.000000E+00+0.000000E+00j     1.000000E+00          l
        151  alphaPorosity_151       c     0.000000E+00   0.000000E+00+0.000000E+00j     1.000000E+00          l
        152  alphaPorosity_152       c     0.000000E+00   0.000000E+00+0.000000E+00j     1.000000E+00          l
        153  alphaPorosity_153       c     0.000000E+00   0.000000E+00+0.000000E+00j     1.000000E+00          l
        154  alphaPorosity_154       c     0.000000E+00   0.000000E+00+0.000000E+00j     1.000000E+00          l
        155  alphaPorosity_155       c     0.000000E+00   0.000000E+00+0.000000E+00j     1.000000E+00          l
        156  alphaPorosity_156       c     0.000000E+00   0.000000E+00+0.000000E+00j     1.000000E+00          l
        157  alphaPorosity_157       c     0.000000E+00   0.000000E+00+0.000000E+00j     1.000000E+00          l
        158  alphaPorosity_158       c     0.000000E+00   0.000000E+00+0.000000E+00j     1.000000E+00          l
        159  alphaPorosity_159       c     0.000000E+00   0.000000E+00+0.000000E+00j     1.000000E+00          l
        160  alphaPorosity_160       c     0.000000E+00   0.000000E+00+0.000000E+00j     1.000000E+00          l
        161  alphaPorosity_161       c     0.000000E+00   0.000000E+00+0.000000E+00j     1.000000E+00          l
        162  alphaPorosity_162       c     0.000000E+00   0.000000E+00+0.000000E+00j     1.000000E+00          l
        163  alphaPorosity_163       c     0.000000E+00   0.000000E+00+0.000000E+00j     1.000000E+00          l
        164  alphaPorosity_164       c     0.000000E+00   0.000000E+00+0.000000E+00j     1.000000E+00          l
        165  alphaPorosity_165       c     0.000000E+00   0.000000E+00+0.000000E+00j     1.000000E+00          l
        166  alphaPorosity_166       c     0.000000E+00   0.000000E+00+0.000000E+00j     1.000000E+00          l
        167  alphaPorosity_167       c     0.000000E+00   0.000000E+00+0.000000E+00j     1.000000E+00          l
        168  alphaPorosity_168       c     0.000000E+00   0.000000E+00+0.000000E+00j     1.000000E+00          l
        169  alphaPorosity_169       c     0.000000E+00   0.000000E+00+0.000000E+00j     1.000000E+00          l
        170  alphaPorosity_170       c     0.000000E+00   0.000000E+00+0.000000E+00j     1.000000E+00          l
        171  alphaPorosity_171       c     0.000000E+00   0.000000E+00+0.000000E+00j     1.000000E+00          l
        172  alphaPorosity_172       c     0.000000E+00   0.000000E+00+0.000000E+00j     1.000000E+00          l
        173  alphaPorosity_173       c     0.000000E+00   0.000000E+00+0.000000E+00j     1.000000E+00          l
        174  alphaPorosity_174       c     0.000000E+00   0.000000E+00+0.000000E+00j     1.000000E+00          l
        175  alphaPorosity_175       c     0.000000E+00   0.000000E+00+0.000000E+00j     1.000000E+00          l
        176  alphaPorosity_176       c     0.000000E+00   0.000000E+00+0.000000E+00j     1.000000E+00          l
        177  alphaPorosity_177       c     0.000000E+00   0.000000E+00+0.000000E+00j     1.000000E+00          l
        178  alphaPorosity_178       c     0.000000E+00   0.000000E+00+0.000000E+00j     1.000000E+00          l
        179  alphaPorosity_179       c     0.000000E+00   0.000000E+00+0.000000E+00j     1.000000E+00          l
        180  alphaPorosity_180       c     0.000000E+00   0.000000E+00+0.000000E+00j     1.000000E+00          l
        181  alphaPorosity_181       c     0.000000E+00   0.000000E+00+0.000000E+00j     1.000000E+00          l
        182  alphaPorosity_182       c     0.000000E+00   0.000000E+00+0.000000E+00j     1.000000E+00          l
        183  alphaPorosity_183       c     0.000000E+00   0.000000E+00+0.000000E+00j     1.000000E+00          l
        184  alphaPorosity_184       c     0.000000E+00   0.000000E+00+0.000000E+00j     1.000000E+00          l
        185  alphaPorosity_185       c     0.000000E+00   0.000000E+00+0.000000E+00j     1.000000E+00          l
        186  alphaPorosity_186       c     0.000000E+00   0.000000E+00+0.000000E+00j     1.000000E+00          l
        187  alphaPorosity_187       c     0.000000E+00   0.000000E+00+0.000000E+00j     1.000000E+00          l
        188  alphaPorosity_188       c     0.000000E+00   0.000000E+00+0.000000E+00j     1.000000E+00          l
        189  alphaPorosity_189       c     0.000000E+00   0.000000E+00+0.000000E+00j     1.000000E+00          l
        190  alphaPorosity_190       c     0.000000E+00   0.000000E+00+0.000000E+00j     1.000000E+00          l
        191  alphaPorosity_191       c     0.000000E+00   0.000000E+00+0.000000E+00j     1.000000E+00          l
        192  alphaPorosity_192       c     0.000000E+00   0.000000E+00+0.000000E+00j     1.000000E+00          l
        193  alphaPorosity_193       c     0.000000E+00   0.000000E+00+0.000000E+00j     1.000000E+00          l
        194  alphaPorosity_194       c     0.000000E+00   0.000000E+00+0.000000E+00j     1.000000E+00          l
        195  alphaPorosity_195       c     0.000000E+00   0.000000E+00+0.000000E+00j     1.000000E+00          l
        196  alphaPorosity_196       c     0.000000E+00   0.000000E+00+0.000000E+00j     1.000000E+00          l
        197  alphaPorosity_197       c     0.000000E+00   0.000000E+00+0.000000E+00j     1.000000E+00          l
        198  alphaPorosity_198       c     0.000000E+00   0.000000E+00+0.000000E+00j     1.000000E+00          l
        199  alphaPorosity_199       c     0.000000E+00   0.000000E+00+0.000000E+00j     1.000000E+00          l
        200  alphaPorosity_200       c     0.000000E+00   0.000000E+00+0.000000E+00j     1.000000E+00          l
        201  alphaPorosity_201       c     0.000000E+00   0.000000E+00+0.000000E+00j     1.000000E+00          l
        202  alphaPorosity_202       c     0.000000E+00   0.000000E+00+0.000000E+00j     1.000000E+00          l
        203  alphaPorosity_203       c     0.000000E+00   0.000000E+00+0.000000E+00j     1.000000E+00          l
        204  alphaPorosity_204       c     0.000000E+00   0.000000E+00+0.000000E+00j     1.000000E+00          l
        205  alphaPorosity_205       c     0.000000E+00   0.000000E+00+0.000000E+00j     1.000000E+00          l
        206  alphaPorosity_206       c     0.000000E+00   0.000000E+00+0.000000E+00j     1.000000E+00          l
        207  alphaPorosity_207       c     0.000000E+00   0.000000E+00+0.000000E+00j     1.000000E+00          l
        208  alphaPorosity_208       c     0.000000E+00   0.000000E+00+0.000000E+00j     1.000000E+00          l
        209  alphaPorosity_209       c     0.000000E+00   0.000000E+00+0.000000E+00j     1.000000E+00          l
        210  alphaPorosity_210       c     0.000000E+00   0.000000E+00+0.000000E+00j     1.000000E+00          l
        211  alphaPorosity_211       c     0.000000E+00   0.000000E+00+0.000000E+00j     1.000000E+00          l
        212  alphaPorosity_212       c     0.000000E+00   0.000000E+00+0.000000E+00j     1.000000E+00          l
        213  alphaPorosity_213       c     0.000000E+00   0.000000E+00+0.000000E+00j     1.000000E+00          l
        214  alphaPorosity_214       c     0.000000E+00   0.000000E+00+0.000000E+00j     1.000000E+00          l
        215  alphaPorosity_215       c     0.000000E+00   0.000000E+00+0.000000E+00j     1.000000E+00          l
        216  alphaPorosity_216       c     0.000000E+00   0.000000E+00+0.000000E+00j     1.000000E+00          l
        217  alphaPorosity_217       c     0.000000E+00   0.000000E+00+0.000000E+00j     1.000000E+00          l
        218  alphaPorosity_218       c     0.000000E+00   0.000000E+00+0.000000E+00j     1.000000E+00          l
        219  alphaPorosity_219       c     0.000000E+00   0.000000E+00+0.000000E+00j     1.000000E+00          l
        220  alphaPorosity_220       c     0.000000E+00   0.000000E+00+0.000000E+00j     1.000000E+00          l
        221  alphaPorosity_221       c     0.000000E+00   0.000000E+00+0.000000E+00j     1.000000E+00          l
        222  alphaPorosity_222       c     0.000000E+00   0.000000E+00+0.000000E+00j     1.000000E+00          l
        223  alphaPorosity_223       c     0.000000E+00   0.000000E+00+0.000000E+00j     1.000000E+00          l
        224  alphaPorosity_224       c     0.000000E+00   0.000000E+00+0.000000E+00j     1.000000E+00          l
        225  alphaPorosity_225       c     0.000000E+00   0.000000E+00+0.000000E+00j     1.000000E+00          l
        226  alphaPorosity_226       c     0.000000E+00   0.000000E+00+0.000000E+00j     1.000000E+00          l
        227  alphaPorosity_227       c     0.000000E+00   0.000000E+00+0.000000E+00j     1.000000E+00          l
        228  alphaPorosity_228       c     0.000000E+00   0.000000E+00+0.000000E+00j     1.000000E+00          l
        229  alphaPorosity_229       c     0.000000E+00   0.000000E+00+0.000000E+00j     1.000000E+00          l
        230  alphaPorosity_230       c     0.000000E+00   0.000000E+00+0.000000E+00j     1.000000E+00          l
        231  alphaPorosity_231       c     0.000000E+00   0.000000E+00+0.000000E+00j     1.000000E+00          l
        232  alphaPorosity_232       c     0.000000E+00   0.000000E+00+0.000000E+00j     1.000000E+00          l
        233  alphaPorosity_233       c     0.000000E+00   0.000000E+00+0.000000E+00j     1.000000E+00          l
        234  alphaPorosity_234       c     0.000000E+00   0.000000E+00+0.000000E+00j     1.000000E+00          l
        235  alphaPorosity_235       c     0.000000E+00   0.000000E+00+0.000000E+00j     1.000000E+00          l
        236  alphaPorosity_236       c     0.000000E+00   0.000000E+00+0.000000E+00j     1.000000E+00          l
        237  alphaPorosity_237       c     0.000000E+00   0.000000E+00+0.000000E+00j     1.000000E+00          l
        238  alphaPorosity_238       c     0.000000E+00   0.000000E+00+0.000000E+00j     1.000000E+00          l
        239  alphaPorosity_239       c     0.000000E+00   0.000000E+00+0.000000E+00j     1.000000E+00          l
        240  alphaPorosity_240       c     0.000000E+00   0.000000E+00+0.000000E+00j     1.000000E+00          l
        241  alphaPorosity_241       c     0.000000E+00   0.000000E+00+0.000000E+00j     1.000000E+00          l
        242  alphaPorosity_242       c     0.000000E+00   0.000000E+00+0.000000E+00j     1.000000E+00          l
        243  alphaPorosity_243       c     0.000000E+00   0.000000E+00+0.000000E+00j     1.000000E+00          l
        244  alphaPorosity_244       c     0.000000E+00   0.000000E+00+0.000000E+00j     1.000000E+00          l
        245  alphaPorosity_245       c     0.000000E+00   0.000000E+00+0.000000E+00j     1.000000E+00          l
        246  alphaPorosity_246       c     0.000000E+00   0.000000E+00+0.000000E+00j     1.000000E+00          l
        247  alphaPorosity_247       c     0.000000E+00   0.000000E+00+0.000000E+00j     1.000000E+00          l
        248  alphaPorosity_248       c     0.000000E+00   0.000000E+00+0.000000E+00j     1.000000E+00          l
        249  alphaPorosity_249       c     0.000000E+00   0.000000E+00+0.000000E+00j     1.000000E+00          l
        250  alphaPorosity_250       c     0.000000E+00   0.000000E+00+0.000000E+00j     1.000000E+00          l
        251  alphaPorosity_251       c     0.000000E+00   0.000000E+00+0.000000E+00j     1.000000E+00          l
        252  alphaPorosity_252       c     0.000000E+00   0.000000E+00+0.000000E+00j     1.000000E+00          l
        253  alphaPorosity_253       c     0.000000E+00   0.000000E+00+0.000000E+00j     1.000000E+00          l
        254  alphaPorosity_254       c     0.000000E+00   0.000000E+00+0.000000E+00j     1.000000E+00          l
        255  alphaPorosity_255       c     0.000000E+00   0.000000E+00+0.000000E+00j     1.000000E+00          l
        256  alphaPorosity_256       c     0.000000E+00   0.000000E+00+0.000000E+00j     1.000000E+00          l
        257  alphaPorosity_257       c     0.000000E+00   0.000000E+00+0.000000E+00j     1.000000E+00          l
        258  alphaPorosity_258       c     0.000000E+00   0.000000E+00+0.000000E+00j     1.000000E+00          l
        259  alphaPorosity_259       c     0.000000E+00   0.000000E+00+0.000000E+00j     1.000000E+00          l
        260  alphaPorosity_260       c     0.000000E+00   0.000000E+00+0.000000E+00j     1.000000E+00          l
        261  alphaPorosity_261       c     0.000000E+00   0.000000E+00+0.000000E+00j     1.000000E+00          l
        262  alphaPorosity_262       c     0.000000E+00   0.000000E+00+0.000000E+00j     1.000000E+00          l
        263  alphaPorosity_263       c     0.000000E+00   0.000000E+00+0.000000E+00j     1.000000E+00          l
        264  alphaPorosity_264       c     0.000000E+00   0.000000E+00+0.000000E+00j     1.000000E+00          l
        265  alphaPorosity_265       c     0.000000E+00   0.000000E+00+0.000000E+00j     1.000000E+00          l
        266  alphaPorosity_266       c     0.000000E+00   0.000000E+00+0.000000E+00j     1.000000E+00          l
        267  alphaPorosity_267       c     0.000000E+00   0.000000E+00+0.000000E+00j     1.000000E+00          l
        268  alphaPorosity_268       c     0.000000E+00   0.000000E+00+0.000000E+00j     1.000000E+00          l
        269  alphaPorosity_269       c     0.000000E+00   0.000000E+00+0.000000E+00j     1.000000E+00          l
        270  alphaPorosity_270       c     0.000000E+00   0.000000E+00+0.000000E+00j     1.000000E+00          l
        271  alphaPorosity_271       c     0.000000E+00   0.000000E+00+0.000000E+00j     1.000000E+00          l
        272  alphaPorosity_272       c     0.000000E+00   0.000000E+00+0.000000E+00j     1.000000E+00          l
        273  alphaPorosity_273       c     0.000000E+00   0.000000E+00+0.000000E+00j     1.000000E+00          l
        274  alphaPorosity_274       c     0.000000E+00   0.000000E+00+0.000000E+00j     1.000000E+00          l
        275  alphaPorosity_275       c     0.000000E+00   0.000000E+00+0.000000E+00j     1.000000E+00          l
        276  alphaPorosity_276       c     0.000000E+00   0.000000E+00+0.000000E+00j     1.000000E+00          l
        277  alphaPorosity_277       c     0.000000E+00   0.000000E+00+0.000000E+00j     1.000000E+00          l
        278  alphaPorosity_278       c     0.000000E+00   0.000000E+00+0.000000E+00j     1.000000E+00          l
        279  alphaPorosity_279       c     0.000000E+00   0.000000E+00+0.000000E+00j     1.000000E+00          l
        280  alphaPorosity_280       c     0.000000E+00   0.000000E+00+0.000000E+00j     1.000000E+00          l
        281  alphaPorosity_281       c     0.000000E+00   0.000000E+00+0.000000E+00j     1.000000E+00          l
        282  alphaPorosity_282       c     0.000000E+00   0.000000E+00+0.000000E+00j     1.000000E+00          l
        283  alphaPorosity_283       c     0.000000E+00   0.000000E+00+0.000000E+00j     1.000000E+00          l
        284  alphaPorosity_284       c     0.000000E+00   0.000000E+00+0.000000E+00j     1.000000E+00          l
        285  alphaPorosity_285       c     0.000000E+00   0.000000E+00+0.000000E+00j     1.000000E+00          l
        286  alphaPorosity_286       c     0.000000E+00   0.000000E+00+0.000000E+00j     1.000000E+00          l
        287  alphaPorosity_287       c     0.000000E+00   0.000000E+00+0.000000E+00j     1.000000E+00          l
        288  alphaPorosity_288       c     0.000000E+00   0.000000E+00+0.000000E+00j     1.000000E+00          l
        289  alphaPorosity_289       c     0.000000E+00   0.000000E+00+0.000000E+00j     1.000000E+00          l
        290  alphaPorosity_290       c     0.000000E+00   0.000000E+00+0.000000E+00j     1.000000E+00          l
        291  alphaPorosity_291       c     0.000000E+00   0.000000E+00+0.000000E+00j     1.000000E+00          l
        292  alphaPorosity_292       c     0.000000E+00   0.000000E+00+0.000000E+00j     1.000000E+00          l
        293  alphaPorosity_293       c     0.000000E+00   0.000000E+00+0.000000E+00j     1.000000E+00          l
        294  alphaPorosity_294       c     0.000000E+00   0.000000E+00+0.000000E+00j     1.000000E+00          l
        295  alphaPorosity_295       c     0.000000E+00   0.000000E+00+0.000000E+00j     1.000000E+00          l
        296  alphaPorosity_296       c     0.000000E+00   0.000000E+00+0.000000E+00j     1.000000E+00          l
        297  alphaPorosity_297       c     0.000000E+00   0.000000E+00+0.000000E+00j     1.000000E+00          l
        298  alphaPorosity_298       c     0.000000E+00   0.000000E+00+0.000000E+00j     1.000000E+00          l
        299  alphaPorosity_299       c     0.000000E+00   0.000000E+00+0.000000E+00j     1.000000E+00          l
        300  alphaPorosity_300       c     0.000000E+00   0.000000E+00+0.000000E+00j     1.000000E+00          l
        301  alphaPorosity_301       c     0.000000E+00   0.000000E+00+0.000000E+00j     1.000000E+00          l
        302  alphaPorosity_302       c     0.000000E+00   0.000000E+00+0.000000E+00j     1.000000E+00          l
        303  alphaPorosity_303       c     0.000000E+00   0.000000E+00+0.000000E+00j     1.000000E+00          l
        304  alphaPorosity_304       c     0.000000E+00   0.000000E+00+0.000000E+00j     1.000000E+00          l
        305  alphaPorosity_305       c     0.000000E+00   0.000000E+00+0.000000E+00j     1.000000E+00          l
        306  alphaPorosity_306       c     0.000000E+00   0.000000E+00+0.000000E+00j     1.000000E+00          l
        307  alphaPorosity_307       c     0.000000E+00   0.000000E+00+0.000000E+00j     1.000000E+00          l
        308  alphaPorosity_308       c     0.000000E+00   0.000000E+00+0.000000E+00j     1.000000E+00          l
        309  alphaPorosity_309       c     0.000000E+00   0.000000E+00+0.000000E+00j     1.000000E+00          l
        310  alphaPorosity_310       c     0.000000E+00   0.000000E+00+0.000000E+00j     1.000000E+00          l
        311  alphaPorosity_311       c     0.000000E+00   0.000000E+00+0.000000E+00j     1.000000E+00          l
        312  alphaPorosity_312       c     0.000000E+00   0.000000E+00+0.000000E+00j     1.000000E+00          l
        313  alphaPorosity_313       c     0.000000E+00   0.000000E+00+0.000000E+00j     1.000000E+00          l
        314  alphaPorosity_314       c     0.000000E+00   0.000000E+00+0.000000E+00j     1.000000E+00          l
        315  alphaPorosity_315       c     0.000000E+00   0.000000E+00+0.000000E+00j     1.000000E+00          l
        316  alphaPorosity_316       c     0.000000E+00   0.000000E+00+0.000000E+00j     1.000000E+00          l
        317  alphaPorosity_317       c     0.000000E+00   0.000000E+00+0.000000E+00j     1.000000E+00          l
        318  alphaPorosity_318       c     0.000000E+00   0.000000E+00+0.000000E+00j     1.000000E+00          l
        319  alphaPorosity_319       c     0.000000E+00   0.000000E+00+0.000000E+00j     1.000000E+00          l
        320  alphaPorosity_320       c     0.000000E+00   0.000000E+00+0.000000E+00j     1.000000E+00          l
        321  alphaPorosity_321       c     0.000000E+00   0.000000E+00+0.000000E+00j     1.000000E+00          l
        322  alphaPorosity_322       c     0.000000E+00   0.000000E+00+0.000000E+00j     1.000000E+00          l
        323  alphaPorosity_323       c     0.000000E+00   0.000000E+00+0.000000E+00j     1.000000E+00          l
        324  alphaPorosity_324       c     0.000000E+00   0.000000E+00+0.000000E+00j     1.000000E+00          l
        325  alphaPorosity_325       c     0.000000E+00   0.000000E+00+0.000000E+00j     1.000000E+00          l
        326  alphaPorosity_326       c     0.000000E+00   0.000000E+00+0.000000E+00j     1.000000E+00          l
        327  alphaPorosity_327       c     0.000000E+00   0.000000E+00+0.000000E+00j     1.000000E+00          l
        328  alphaPorosity_328       c     0.000000E+00   0.000000E+00+0.000000E+00j     1.000000E+00          l
        329  alphaPorosity_329       c     0.000000E+00   0.000000E+00+0.000000E+00j     1.000000E+00          l
        330  alphaPorosity_330       c     0.000000E+00   0.000000E+00+0.000000E+00j     1.000000E+00          l
        331  alphaPorosity_331       c     0.000000E+00   0.000000E+00+0.000000E+00j     1.000000E+00          l
        332  alphaPorosity_332       c     0.000000E+00   0.000000E+00+0.000000E+00j     1.000000E+00          l
        333  alphaPorosity_333       c     0.000000E+00   0.000000E+00+0.000000E+00j     1.000000E+00          l
        334  alphaPorosity_334       c     0.000000E+00   0.000000E+00+0.000000E+00j     1.000000E+00          l
        335  alphaPorosity_335       c     0.000000E+00   0.000000E+00+0.000000E+00j     1.000000E+00          l
        336  alphaPorosity_336       c     0.000000E+00   0.000000E+00+0.000000E+00j     1.000000E+00          l
        337  alphaPorosity_337       c     0.000000E+00   0.000000E+00+0.000000E+00j     1.000000E+00          l
        338  alphaPorosity_338       c     0.000000E+00   0.000000E+00+0.000000E+00j     1.000000E+00          l
        339  alphaPorosity_339       c     0.000000E+00   0.000000E+00+0.000000E+00j     1.000000E+00          l
        340  alphaPorosity_340       c     0.000000E+00   0.000000E+00+0.000000E+00j     1.000000E+00          l
        341  alphaPorosity_341       c     0.000000E+00   0.000000E+00+0.000000E+00j     1.000000E+00          l
        342  alphaPorosity_342       c     0.000000E+00   0.000000E+00+0.000000E+00j     1.000000E+00          l
        343  alphaPorosity_343       c     0.000000E+00   0.000000E+00+0.000000E+00j     1.000000E+00          l
        344  alphaPorosity_344       c     0.000000E+00   0.000000E+00+0.000000E+00j     1.000000E+00          l
        345  alphaPorosity_345       c     0.000000E+00   0.000000E+00+0.000000E+00j     1.000000E+00          l
        346  alphaPorosity_346       c     0.000000E+00   0.000000E+00+0.000000E+00j     1.000000E+00          l
        347  alphaPorosity_347       c     0.000000E+00   0.000000E+00+0.000000E+00j     1.000000E+00          l
        348  alphaPorosity_348       c     0.000000E+00   0.000000E+00+0.000000E+00j     1.000000E+00          l
        349  alphaPorosity_349       c     0.000000E+00   0.000000E+00+0.000000E+00j     1.000000E+00          l
        350  alphaPorosity_350       c     0.000000E+00   0.000000E+00+0.000000E+00j     1.000000E+00          l
        351  alphaPorosity_351       c     0.000000E+00   0.000000E+00+0.000000E+00j     1.000000E+00          l
        352  alphaPorosity_352       c     0.000000E+00   0.000000E+00+0.000000E+00j     1.000000E+00          l
        353  alphaPorosity_353       c     0.000000E+00   0.000000E+00+0.000000E+00j     1.000000E+00          l
        354  alphaPorosity_354       c     0.000000E+00   0.000000E+00+0.000000E+00j     1.000000E+00          l
        355  alphaPorosity_355       c     0.000000E+00   0.000000E+00+0.000000E+00j     1.000000E+00          l
        356  alphaPorosity_356       c     0.000000E+00   0.000000E+00+0.000000E+00j     1.000000E+00          l
        357  alphaPorosity_357       c     0.000000E+00   0.000000E+00+0.000000E+00j     1.000000E+00          l
        358  alphaPorosity_358       c     0.000000E+00   0.000000E+00+0.000000E+00j     1.000000E+00          l
        359  alphaPorosity_359       c     0.000000E+00   0.000000E+00+0.000000E+00j     1.000000E+00          l
        360  alphaPorosity_360       c     0.000000E+00   0.000000E+00+0.000000E+00j     1.000000E+00          l
        361  alphaPorosity_361       c     0.000000E+00   0.000000E+00+0.000000E+00j     1.000000E+00          l
        362  alphaPorosity_362       c     0.000000E+00   0.000000E+00+0.000000E+00j     1.000000E+00          l
        363  alphaPorosity_363       c     0.000000E+00   0.000000E+00+0.000000E+00j     1.000000E+00          l
        364  alphaPorosity_364       c     0.000000E+00   0.000000E+00+0.000000E+00j     1.000000E+00          l
        365  alphaPorosity_365       c     0.000000E+00   0.000000E+00+0.000000E+00j     1.000000E+00          l
        366  alphaPorosity_366       c     0.000000E+00   0.000000E+00+0.000000E+00j     1.000000E+00          l
        367  alphaPorosity_367       c     0.000000E+00   0.000000E+00+0.000000E+00j     1.000000E+00          l
        368  alphaPorosity_368       c     0.000000E+00   0.000000E+00+0.000000E+00j     1.000000E+00          l
        369  alphaPorosity_369       c     0.000000E+00   0.000000E+00+0.000000E+00j     1.000000E+00          l
        370  alphaPorosity_370       c     0.000000E+00   0.000000E+00+0.000000E+00j     1.000000E+00          l
        371  alphaPorosity_371       c     0.000000E+00   0.000000E+00+0.000000E+00j     1.000000E+00          l
        372  alphaPorosity_372       c     0.000000E+00   0.000000E+00+0.000000E+00j     1.000000E+00          l
        373  alphaPorosity_373       c     0.000000E+00   0.000000E+00+0.000000E+00j     1.000000E+00          l
        374  alphaPorosity_374       c     0.000000E+00   0.000000E+00+0.000000E+00j     1.000000E+00          l
        375  alphaPorosity_375       c     0.000000E+00   0.000000E+00+0.000000E+00j     1.000000E+00          l
        376  alphaPorosity_376       c     0.000000E+00   0.000000E+00+0.000000E+00j     1.000000E+00          l
        377  alphaPorosity_377       c     0.000000E+00   0.000000E+00+0.000000E+00j     1.000000E+00          l
        378  alphaPorosity_378       c     0.000000E+00   0.000000E+00+0.000000E+00j     1.000000E+00          l
        379  alphaPorosity_379       c     0.000000E+00   0.000000E+00+0.000000E+00j     1.000000E+00          l
        380  alphaPorosity_380       c     0.000000E+00   0.000000E+00+0.000000E+00j     1.000000E+00          l
        381  alphaPorosity_381       c     0.000000E+00   0.000000E+00+0.000000E+00j     1.000000E+00          l
        382  alphaPorosity_382       c     0.000000E+00   0.000000E+00+0.000000E+00j     1.000000E+00          l
        383  alphaPorosity_383       c     0.000000E+00   0.000000E+00+0.000000E+00j     1.000000E+00          l
        384  alphaPorosity_384       c     0.000000E+00   0.000000E+00+0.000000E+00j     1.000000E+00          l
        385  alphaPorosity_385       c     0.000000E+00   0.000000E+00+0.000000E+00j     1.000000E+00          l
        386  alphaPorosity_386       c     0.000000E+00   0.000000E+00+0.000000E+00j     1.000000E+00          l
        387  alphaPorosity_387       c     0.000000E+00   0.000000E+00+0.000000E+00j     1.000000E+00          l
        388  alphaPorosity_388       c     0.000000E+00   0.000000E+00+0.000000E+00j     1.000000E+00          l
        389  alphaPorosity_389       c     0.000000E+00   0.000000E+00+0.000000E+00j     1.000000E+00          l
        390  alphaPorosity_390       c     0.000000E+00   0.000000E+00+0.000000E+00j     1.000000E+00          l
        391  alphaPorosity_391       c     0.000000E+00   0.000000E+00+0.000000E+00j     1.000000E+00          l
        392  alphaPorosity_392       c     0.000000E+00   0.000000E+00+0.000000E+00j     1.000000E+00          l
        393  alphaPorosity_393       c     0.000000E+00   0.000000E+00+0.000000E+00j     1.000000E+00          l
        394  alphaPorosity_394       c     0.000000E+00   0.000000E+00+0.000000E+00j     1.000000E+00          l
        395  alphaPorosity_395       c     0.000000E+00   0.000000E+00+0.000000E+00j     1.000000E+00          l
        396  alphaPorosity_396       c     0.000000E+00   0.000000E+00+0.000000E+00j     1.000000E+00          l
        397  alphaPorosity_397       c     0.000000E+00   0.000000E+00+0.000000E+00j     1.000000E+00          l
        398  alphaPorosity_398       c     0.000000E+00   0.000000E+00+0.000000E+00j     1.000000E+00          l
        399  alphaPorosity_399       c     0.000000E+00   0.000000E+00+0.000000E+00j     1.000000E+00          l
        400  alphaPorosity_400       c     0.000000E+00   0.000000E+00+0.000000E+00j     1.000000E+00          l
        401  alphaPorosity_401       c     0.000000E+00   0.000000E+00+0.000000E+00j     1.000000E+00          l
        402  alphaPorosity_402       c     0.000000E+00   0.000000E+00+0.000000E+00j     1.000000E+00          l
        403  alphaPorosity_403       c     0.000000E+00   0.000000E+00+0.000000E+00j     1.000000E+00          l
        404  alphaPorosity_404       c     0.000000E+00   0.000000E+00+0.000000E+00j     1.000000E+00          l
        405  alphaPorosity_405       c     0.000000E+00   0.000000E+00+0.000000E+00j     1.000000E+00          l
        406  alphaPorosity_406       c     0.000000E+00   0.000000E+00+0.000000E+00j     1.000000E+00          l
        407  alphaPorosity_407       c     0.000000E+00   0.000000E+00+0.000000E+00j     1.000000E+00          l
        408  alphaPorosity_408       c     0.000000E+00   0.000000E+00+0.000000E+00j     1.000000E+00          l
        409  alphaPorosity_409       c     0.000000E+00   0.000000E+00+0.000000E+00j     1.000000E+00          l
        410  alphaPorosity_410       c     0.000000E+00   0.000000E+00+0.000000E+00j     1.000000E+00          l
        411  alphaPorosity_411       c     0.000000E+00   0.000000E+00+0.000000E+00j     1.000000E+00          l
        412  alphaPorosity_412       c     0.000000E+00   0.000000E+00+0.000000E+00j     1.000000E+00          l
        413  alphaPorosity_413       c     0.000000E+00   0.000000E+00+0.000000E+00j     1.000000E+00          l
        414  alphaPorosity_414       c     0.000000E+00   0.000000E+00+0.000000E+00j     1.000000E+00          l
        415  alphaPorosity_415       c     0.000000E+00   0.000000E+00+0.000000E+00j     1.000000E+00          l
        416  alphaPorosity_416       c     0.000000E+00   0.000000E+00+0.000000E+00j     1.000000E+00          l
        417  alphaPorosity_417       c     0.000000E+00   0.000000E+00+0.000000E+00j     1.000000E+00          l
        418  alphaPorosity_418       c     0.000000E+00   0.000000E+00+0.000000E+00j     1.000000E+00          l
        419  alphaPorosity_419       c     0.000000E+00   0.000000E+00+0.000000E+00j     1.000000E+00          l
        420  alphaPorosity_420       c     0.000000E+00   0.000000E+00+0.000000E+00j     1.000000E+00          l
        421  alphaPorosity_421       c     0.000000E+00   0.000000E+00+0.000000E+00j     1.000000E+00          l
        422  alphaPorosity_422       c     0.000000E+00   0.000000E+00+0.000000E+00j     1.000000E+00          l
        423  alphaPorosity_423       c     0.000000E+00   0.000000E+00+0.000000E+00j     1.000000E+00          l
        424  alphaPorosity_424       c     0.000000E+00   0.000000E+00+0.000000E+00j     1.000000E+00          l
        425  alphaPorosity_425       c     0.000000E+00   0.000000E+00+0.000000E+00j     1.000000E+00          l
        426  alphaPorosity_426       c     0.000000E+00   0.000000E+00+0.000000E+00j     1.000000E+00          l
        427  alphaPorosity_427       c     0.000000E+00   0.000000E+00+0.000000E+00j     1.000000E+00          l
        428  alphaPorosity_428       c     0.000000E+00   0.000000E+00+0.000000E+00j     1.000000E+00          l
        429  alphaPorosity_429       c     0.000000E+00   0.000000E+00+0.000000E+00j     1.000000E+00          l
        430  alphaPorosity_430       c     0.000000E+00   0.000000E+00+0.000000E+00j     1.000000E+00          l
        431  alphaPorosity_431       c     0.000000E+00   0.000000E+00+0.000000E+00j     1.000000E+00          l
        432  alphaPorosity_432       c     0.000000E+00   0.000000E+00+0.000000E+00j     1.000000E+00          l
        433  alphaPorosity_433       c     0.000000E+00   0.000000E+00+0.000000E+00j     1.000000E+00          l
        434  alphaPorosity_434       c     0.000000E+00   0.000000E+00+0.000000E+00j     1.000000E+00          l
        435  alphaPorosity_435       c     0.000000E+00   0.000000E+00+0.000000E+00j     1.000000E+00          l
        436  alphaPorosity_436       c     0.000000E+00   0.000000E+00+0.000000E+00j     1.000000E+00          l
        437  alphaPorosity_437       c     0.000000E+00   0.000000E+00+0.000000E+00j     1.000000E+00          l
        438  alphaPorosity_438       c     0.000000E+00   0.000000E+00+0.000000E+00j     1.000000E+00          l
        439  alphaPorosity_439       c     0.000000E+00   0.000000E+00+0.000000E+00j     1.000000E+00          l
        440  alphaPorosity_440       c     0.000000E+00   0.000000E+00+0.000000E+00j     1.000000E+00          l
        441  alphaPorosity_441       c     0.000000E+00   0.000000E+00+0.000000E+00j     1.000000E+00          l
        442  alphaPorosity_442       c     0.000000E+00   0.000000E+00+0.000000E+00j     1.000000E+00          l
        443  alphaPorosity_443       c     0.000000E+00   0.000000E+00+0.000000E+00j     1.000000E+00          l
        444  alphaPorosity_444       c     0.000000E+00   0.000000E+00+0.000000E+00j     1.000000E+00          l
        445  alphaPorosity_445       c     0.000000E+00   0.000000E+00+0.000000E+00j     1.000000E+00          l
        446  alphaPorosity_446       c     0.000000E+00   0.000000E+00+0.000000E+00j     1.000000E+00          l
        447  alphaPorosity_447       c     0.000000E+00   0.000000E+00+0.000000E+00j     1.000000E+00          l
        448  alphaPorosity_448       c     0.000000E+00   0.000000E+00+0.000000E+00j     1.000000E+00          l
        449  alphaPorosity_449       c     0.000000E+00   0.000000E+00+0.000000E+00j     1.000000E+00          l
        450  alphaPorosity_450       c     0.000000E+00   0.000000E+00+0.000000E+00j     1.000000E+00          l
        451  alphaPorosity_451       c     0.000000E+00   0.000000E+00+0.000000E+00j     1.000000E+00          l
        452  alphaPorosity_452       c     0.000000E+00   0.000000E+00+0.000000E+00j     1.000000E+00          l
        453  alphaPorosity_453       c     0.000000E+00   0.000000E+00+0.000000E+00j     1.000000E+00          l
        454  alphaPorosity_454       c     0.000000E+00   0.000000E+00+0.000000E+00j     1.000000E+00          l
        455  alphaPorosity_455       c     0.000000E+00   0.000000E+00+0.000000E+00j     1.000000E+00          l
        456  alphaPorosity_456       c     0.000000E+00   0.000000E+00+0.000000E+00j     1.000000E+00          l
        457  alphaPorosity_457       c     0.000000E+00   0.000000E+00+0.000000E+00j     1.000000E+00          l
        458  alphaPorosity_458       c     0.000000E+00   0.000000E+00+0.000000E+00j     1.000000E+00          l
        459  alphaPorosity_459       c     0.000000E+00   0.000000E+00+0.000000E+00j     1.000000E+00          l
        460  alphaPorosity_460       c     0.000000E+00   0.000000E+00+0.000000E+00j     1.000000E+00          l
        461  alphaPorosity_461       c     0.000000E+00   0.000000E+00+0.000000E+00j     1.000000E+00          l
        462  alphaPorosity_462       c     0.000000E+00   0.000000E+00+0.000000E+00j     1.000000E+00          l
        463  alphaPorosity_463       c     0.000000E+00   0.000000E+00+0.000000E+00j     1.000000E+00          l
        464  alphaPorosity_464       c     0.000000E+00   0.000000E+00+0.000000E+00j     1.000000E+00          l
        465  alphaPorosity_465       c     0.000000E+00   0.000000E+00+0.000000E+00j     1.000000E+00          l
        466  alphaPorosity_466       c     0.000000E+00   0.000000E+00+0.000000E+00j     1.000000E+00          l
        467  alphaPorosity_467       c     0.000000E+00   0.000000E+00+0.000000E+00j     1.000000E+00          l
        468  alphaPorosity_468       c     0.000000E+00   0.000000E+00+0.000000E+00j     1.000000E+00          l
        469  alphaPorosity_469       c     0.000000E+00   0.000000E+00+0.000000E+00j     1.000000E+00          l
        470  alphaPorosity_470       c     0.000000E+00   0.000000E+00+0.000000E+00j     1.000000E+00          l
        471  alphaPorosity_471       c     0.000000E+00   0.000000E+00+0.000000E+00j     1.000000E+00          l
        472  alphaPorosity_472       c     0.000000E+00   0.000000E+00+0.000000E+00j     1.000000E+00          l
        473  alphaPorosity_473       c     0.000000E+00   0.000000E+00+0.000000E+00j     1.000000E+00          l
        474  alphaPorosity_474       c     0.000000E+00   0.000000E+00+0.000000E+00j     1.000000E+00          l
        475  alphaPorosity_475       c     0.000000E+00   0.000000E+00+0.000000E+00j     1.000000E+00          l
        476  alphaPorosity_476       c     0.000000E+00   0.000000E+00+0.000000E+00j     1.000000E+00          l
        477  alphaPorosity_477       c     0.000000E+00   0.000000E+00+0.000000E+00j     1.000000E+00          l
        478  alphaPorosity_478       c     0.000000E+00   0.000000E+00+0.000000E+00j     1.000000E+00          l
        479  alphaPorosity_479       c     0.000000E+00   0.000000E+00+0.000000E+00j     1.000000E+00          l
        480  alphaPorosity_480       c     0.000000E+00   0.000000E+00+0.000000E+00j     1.000000E+00          l
        481  alphaPorosity_481       c     0.000000E+00   0.000000E+00+0.000000E+00j     1.000000E+00          l
        482  alphaPorosity_482       c     0.000000E+00   0.000000E+00+0.000000E+00j     1.000000E+00          l
        483  alphaPorosity_483       c     0.000000E+00   0.000000E+00+0.000000E+00j     1.000000E+00          l
        484  alphaPorosity_484       c     0.000000E+00   0.000000E+00+0.000000E+00j     1.000000E+00          l
        485  alphaPorosity_485       c     0.000000E+00   0.000000E+00+0.000000E+00j     1.000000E+00          l
        486  alphaPorosity_486       c     0.000000E+00   0.000000E+00+0.000000E+00j     1.000000E+00          l
        487  alphaPorosity_487       c     0.000000E+00   0.000000E+00+0.000000E+00j     1.000000E+00          l
        488  alphaPorosity_488       c     0.000000E+00   0.000000E+00+0.000000E+00j     1.000000E+00          l
        489  alphaPorosity_489       c     0.000000E+00   0.000000E+00+0.000000E+00j     1.000000E+00          l
        490  alphaPorosity_490       c     0.000000E+00   0.000000E+00+0.000000E+00j     1.000000E+00          l
        491  alphaPorosity_491       c     0.000000E+00   0.000000E+00+0.000000E+00j     1.000000E+00          l
        492  alphaPorosity_492       c     0.000000E+00   0.000000E+00+0.000000E+00j     1.000000E+00          l
        493  alphaPorosity_493       c     0.000000E+00   0.000000E+00+0.000000E+00j     1.000000E+00          l
        494  alphaPorosity_494       c     0.000000E+00   0.000000E+00+0.000000E+00j     1.000000E+00          l
        495  alphaPorosity_495       c     0.000000E+00   0.000000E+00+0.000000E+00j     1.000000E+00          l
        496  alphaPorosity_496       c     0.000000E+00   0.000000E+00+0.000000E+00j     1.000000E+00          l
        497  alphaPorosity_497       c     0.000000E+00   0.000000E+00+0.000000E+00j     1.000000E+00          l
        498  alphaPorosity_498       c     0.000000E+00   0.000000E+00+0.000000E+00j     1.000000E+00          l
        499  alphaPorosity_499       c     0.000000E+00   0.000000E+00+0.000000E+00j     1.000000E+00          l
        500  alphaPorosity_500       c     0.000000E+00   0.000000E+00+0.000000E+00j     1.000000E+00          l
        501  alphaPorosity_501       c     0.000000E+00   0.000000E+00+0.000000E+00j     1.000000E+00          l
        502  alphaPorosity_502       c     0.000000E+00   0.000000E+00+0.000000E+00j     1.000000E+00          l
        503  alphaPorosity_503       c     0.000000E+00   0.000000E+00+0.000000E+00j     1.000000E+00          l
        504  alphaPorosity_504       c     0.000000E+00   0.000000E+00+0.000000E+00j     1.000000E+00          l
        505  alphaPorosity_505       c     0.000000E+00   0.000000E+00+0.000000E+00j     1.000000E+00          l
        506  alphaPorosity_506       c     0.000000E+00   0.000000E+00+0.000000E+00j     1.000000E+00          l
        507  alphaPorosity_507       c     0.000000E+00   0.000000E+00+0.000000E+00j     1.000000E+00          l
        508  alphaPorosity_508       c     0.000000E+00   0.000000E+00+0.000000E+00j     1.000000E+00          l
        509  alphaPorosity_509       c     0.000000E+00   0.000000E+00+0.000000E+00j     1.000000E+00          l
        510  alphaPorosity_510       c     0.000000E+00   0.000000E+00+0.000000E+00j     1.000000E+00          l
        511  alphaPorosity_511       c     0.000000E+00   0.000000E+00+0.000000E+00j     1.000000E+00          l
        512  alphaPorosity_512       c     0.000000E+00   0.000000E+00+0.000000E+00j     1.000000E+00          l
        513  alphaPorosity_513       c     0.000000E+00   0.000000E+00+0.000000E+00j     1.000000E+00          l
        514  alphaPorosity_514       c     0.000000E+00   0.000000E+00+0.000000E+00j     1.000000E+00          l
        515  alphaPorosity_515       c     0.000000E+00   0.000000E+00+0.000000E+00j     1.000000E+00          l
        516  alphaPorosity_516       c     0.000000E+00   0.000000E+00+0.000000E+00j     1.000000E+00          l
        517  alphaPorosity_517       c     0.000000E+00   0.000000E+00+0.000000E+00j     1.000000E+00          l
        518  alphaPorosity_518       c     0.000000E+00   0.000000E+00+0.000000E+00j     1.000000E+00          l
        519  alphaPorosity_519       c     0.000000E+00   0.000000E+00+0.000000E+00j     1.000000E+00          l
        520  alphaPorosity_520       c     0.000000E+00   0.000000E+00+0.000000E+00j     1.000000E+00          l
        521  alphaPorosity_521       c     0.000000E+00   0.000000E+00+0.000000E+00j     1.000000E+00          l
        522  alphaPorosity_522       c     0.000000E+00   0.000000E+00+0.000000E+00j     1.000000E+00          l
        523  alphaPorosity_523       c     0.000000E+00   0.000000E+00+0.000000E+00j     1.000000E+00          l
        524  alphaPorosity_524       c     0.000000E+00   0.000000E+00+0.000000E+00j     1.000000E+00          l
        525  alphaPorosity_525       c     0.000000E+00   0.000000E+00+0.000000E+00j     1.000000E+00          l
        526  alphaPorosity_526       c     0.000000E+00   0.000000E+00+0.000000E+00j     1.000000E+00          l
        527  alphaPorosity_527       c     0.000000E+00   0.000000E+00+0.000000E+00j     1.000000E+00          l
        528  alphaPorosity_528       c     0.000000E+00   0.000000E+00+0.000000E+00j     1.000000E+00          l
        529  alphaPorosity_529       c     0.000000E+00   0.000000E+00+0.000000E+00j     1.000000E+00          l
        530  alphaPorosity_530       c     0.000000E+00   0.000000E+00+0.000000E+00j     1.000000E+00          l
        531  alphaPorosity_531       c     0.000000E+00   0.000000E+00+0.000000E+00j     1.000000E+00          l
        532  alphaPorosity_532       c     0.000000E+00   0.000000E+00+0.000000E+00j     1.000000E+00          l
[...]
        959  alphaPorosity_959       c     0.000000E+00     4.968178E-01     1.000000E+00           
        960  alphaPorosity_960       c     0.000000E+00     3.464282E-01     1.000000E+00           
        961  alphaPorosity_961       c     0.000000E+00     4.545061E-03     1.000000E+00           
        962  alphaPorosity_962       c     0.000000E+00     8.586990E-03     1.000000E+00           
        963  alphaPorosity_963       c     0.000000E+00     4.182615E-01     1.000000E+00           
        964  alphaPorosity_964       c     0.000000E+00     4.770182E-01     1.000000E+00           
        965  alphaPorosity_965       c     0.000000E+00     4.782786E-01     1.000000E+00           
        966  alphaPorosity_966       c     0.000000E+00     4.810675E-01     1.000000E+00           
        967  alphaPorosity_967       c     0.000000E+00     4.832734E-01     1.000000E+00           
        968  alphaPorosity_968       c     0.000000E+00     4.852507E-01     1.000000E+00           
        969  alphaPorosity_969       c     0.000000E+00     4.869905E-01     1.000000E+00           
        970  alphaPorosity_970       c     0.000000E+00     4.885109E-01     1.000000E+00           
        971  alphaPorosity_971       c     0.000000E+00     4.898313E-01     1.000000E+00           
        972  alphaPorosity_972       c     0.000000E+00     4.909729E-01     1.000000E+00           
        973  alphaPorosity_973       c     0.000000E+00     4.919563E-01     1.000000E+00           
        974  alphaPorosity_974       c     0.000000E+00     4.928017E-01     1.000000E+00           
        975  alphaPorosity_975       c     0.000000E+00     4.935276E-01     1.000000E+00           
        976  alphaPorosity_976       c     0.000000E+00     4.941511E-01     1.000000E+00           
        977  alphaPorosity_977       c     0.000000E+00     4.946873E-01     1.000000E+00           
        978  alphaPorosity_978       c     0.000000E+00     4.951493E-01     1.000000E+00           
        979  alphaPorosity_979       c     0.000000E+00     4.955483E-01     1.000000E+00           
        980  alphaPorosity_980       c     0.000000E+00     4.958942E-01     1.000000E+00           
        981  alphaPorosity_981       c     0.000000E+00     4.961949E-01     1.000000E+00           
        982  alphaPorosity_982       c     0.000000E+00     4.964575E-01     1.000000E+00           
        983  alphaPorosity_983       c     0.000000E+00     4.966879E-01     1.000000E+00           
        984  alphaPorosity_984       c     0.000000E+00     3.454533E-01     1.000000E+00           
        985  alphaPorosity_985       c     0.000000E+00     5.186874E-03     1.000000E+00           
        986  alphaPorosity_986       c     0.000000E+00     1.240656E-02     1.000000E+00           
        987  alphaPorosity_987       c     0.000000E+00     4.538866E-01     1.000000E+00           
        988  alphaPorosity_988       c     0.000000E+00     4.655562E-01     1.000000E+00           
        989  alphaPorosity_989       c     0.000000E+00     4.747404E-01     1.000000E+00           
        990  alphaPorosity_990       c     0.000000E+00     4.787652E-01     1.000000E+00           
        991  alphaPorosity_991       c     0.000000E+00     4.817391E-01     1.000000E+00           
        992  alphaPorosity_992       c     0.000000E+00     4.841214E-01     1.000000E+00           
        993  alphaPorosity_993       c     0.000000E+00     4.861173E-01     1.000000E+00           
        994  alphaPorosity_994       c     0.000000E+00     4.878135E-01     1.000000E+00           
        995  alphaPorosity_995       c     0.000000E+00     4.892609E-01     1.000000E+00           
        996  alphaPorosity_996       c     0.000000E+00     4.904973E-01     1.000000E+00           
        997  alphaPorosity_997       c     0.000000E+00     4.915534E-01     1.000000E+00           
        998  alphaPorosity_998       c     0.000000E+00     4.924559E-01     1.000000E+00           
        999  alphaPorosity_999       c     0.000000E+00     4.932278E-01     1.000000E+00           
       1000  alphaPorosity_1000      c     0.000000E+00     4.938889E-01     1.000000E+00           
       1001  alphaPorosity_1001      c     0.000000E+00     4.944565E-01     1.000000E+00           
       1002  alphaPorosity_1002      c     0.000000E+00     4.949451E-01     1.000000E+00           
       1003  alphaPorosity_1003      c     0.000000E+00     4.953671E-01     1.000000E+00           
       1004  alphaPorosity_1004      c     0.000000E+00     4.957328E-01     1.000000E+00           
       1005  alphaPorosity_1005      c     0.000000E+00     4.960512E-01     1.000000E+00           
       1006  alphaPorosity_1006      c     0.000000E+00     4.963297E-01     1.000000E+00           
       1007  alphaPorosity_1007      c     0.000000E+00     4.965747E-01     1.000000E+00           
       1008  alphaPorosity_1008      c     0.000000E+00     3.433574E-01     1.000000E+00           
       1009  alphaPorosity_1009      c     0.000000E+00     5.816053E-03     1.000000E+00           
       1010  alphaPorosity_1010      c     0.000000E+00     2.264642E-02     1.000000E+00           
       1011  alphaPorosity_1011      c     0.000000E+00     4.733192E-01     1.000000E+00           
       1012  alphaPorosity_1012      c     0.000000E+00     4.655922E-01     1.000000E+00           
       1013  alphaPorosity_1013      c     0.000000E+00     4.735075E-01     1.000000E+00           
       1014  alphaPorosity_1014      c     0.000000E+00     4.771864E-01     1.000000E+00           
       1015  alphaPorosity_1015      c     0.000000E+00     4.803943E-01     1.000000E+00           
       1016  alphaPorosity_1016      c     0.000000E+00     4.830431E-01     1.000000E+00           
       1017  alphaPorosity_1017      c     0.000000E+00     4.852660E-01     1.000000E+00           
       1018  alphaPorosity_1018      c     0.000000E+00     4.871369E-01     1.000000E+00           
       1019  alphaPorosity_1019      c     0.000000E+00     4.887155E-01     1.000000E+00           
       1020  alphaPorosity_1020      c     0.000000E+00     4.900501E-01     1.000000E+00           
       1021  alphaPorosity_1021      c     0.000000E+00     4.911806E-01     1.000000E+00           
       1022  alphaPorosity_1022      c     0.000000E+00     4.921404E-01     1.000000E+00           
       1023  alphaPorosity_1023      c     0.000000E+00     4.929574E-01     1.000000E+00           
       1024  alphaPorosity_1024      c     0.000000E+00     4.936549E-01     1.000000E+00           
       1025  alphaPorosity_1025      c     0.000000E+00     4.942522E-01     1.000000E+00           
       1026  alphaPorosity_1026      c     0.000000E+00     4.947656E-01     1.000000E+00           
       1027  alphaPorosity_1027      c     0.000000E+00     4.952086E-01     1.000000E+00           
       1028  alphaPorosity_1028      c     0.000000E+00     4.955927E-01     1.000000E+00           
       1029  alphaPorosity_1029      c     0.000000E+00     4.959272E-01     1.000000E+00           
       1030  alphaPorosity_1030      c     0.000000E+00     4.962201E-01     1.000000E+00           
       1031  alphaPorosity_1031      c     0.000000E+00     4.964782E-01     1.000000E+00           
       1032  alphaPorosity_1032      c     0.000000E+00     3.242308E-01     1.000000E+00           
       1033  alphaPorosity_1033      c     0.000000E+00     6.714431E-03     1.000000E+00           
       1034  alphaPorosity_1034      c     0.000000E+00     5.298693E-02     1.000000E+00           
       1035  alphaPorosity_1035      c     0.000000E+00     4.798126E-01     1.000000E+00           
       1036  alphaPorosity_1036      c     0.000000E+00     4.666270E-01     1.000000E+00           
       1037  alphaPorosity_1037      c     0.000000E+00     4.722226E-01     1.000000E+00           
       1038  alphaPorosity_1038      c     0.000000E+00     4.756719E-01     1.000000E+00           
       1039  alphaPorosity_1039      c     0.000000E+00     4.790727E-01     1.000000E+00           
       1040  alphaPorosity_1040      c     0.000000E+00     4.819935E-01     1.000000E+00           
       1041  alphaPorosity_1041      c     0.000000E+00     4.844484E-01     1.000000E+00           
       1042  alphaPorosity_1042      c     0.000000E+00     4.864987E-01     1.000000E+00           
       1043  alphaPorosity_1043      c     0.000000E+00     4.882104E-01     1.000000E+00           
       1044  alphaPorosity_1044      c     0.000000E+00     4.896431E-01     1.000000E+00           
       1045  alphaPorosity_1045      c     0.000000E+00     4.908466E-01     1.000000E+00           
       1046  alphaPorosity_1046      c     0.000000E+00     4.918616E-01     1.000000E+00           
       1047  alphaPorosity_1047      c     0.000000E+00     4.927212E-01     1.000000E+00           
       1048  alphaPorosity_1048      c     0.000000E+00     4.934523E-01     1.000000E+00           
       1049  alphaPorosity_1049      c     0.000000E+00     4.940767E-01     1.000000E+00           
       1050  alphaPorosity_1050      c     0.000000E+00     4.946124E-01     1.000000E+00           
       1051  alphaPorosity_1051      c     0.000000E+00     4.950743E-01     1.000000E+00           
       1052  alphaPorosity_1052      c     0.000000E+00     4.954745E-01     1.000000E+00           
       1053  alphaPorosity_1053      c     0.000000E+00     4.958232E-01     1.000000E+00           
       1054  alphaPorosity_1054      c     0.000000E+00     4.961287E-01     1.000000E+00           
       1055  alphaPorosity_1055      c     0.000000E+00     4.963983E-01     1.000000E+00           
       1056  alphaPorosity_1056      c     0.000000E+00     2.974978E-01     1.000000E+00           
       1057  alphaPorosity_1057      c     0.000000E+00     8.497336E-03     1.000000E+00           
       1058  alphaPorosity_1058      c     0.000000E+00     3.924422E-01     1.000000E+00           
       1059  alphaPorosity_1059      c     0.000000E+00     4.689845E-01     1.000000E+00           
       1060  alphaPorosity_1060      c     0.000000E+00     4.646348E-01     1.000000E+00           
       1061  alphaPorosity_1061      c     0.000000E+00     4.692719E-01     1.000000E+00           
       1062  alphaPorosity_1062      c     0.000000E+00     4.736420E-01     1.000000E+00           
       1063  alphaPorosity_1063      c     0.000000E+00     4.776176E-01     1.000000E+00           
       1064  alphaPorosity_1064      c     0.000000E+00     4.809426E-01     1.000000E+00           
       1065  alphaPorosity_1065      c     0.000000E+00     4.836762E-01     1.000000E+00           
       1066  alphaPorosity_1066      c     0.000000E+00     4.859179E-01     1.000000E+00           
       1067  alphaPorosity_1067      c     0.000000E+00     4.877627E-01     1.000000E+00           
       1068  alphaPorosity_1068      c     0.000000E+00     4.892897E-01     1.000000E+00           
       1069  alphaPorosity_1069      c     0.000000E+00     4.905612E-01     1.000000E+00           
       1070  alphaPorosity_1070      c     0.000000E+00     4.916265E-01     1.000000E+00           
       1071  alphaPorosity_1071      c     0.000000E+00     4.925241E-01     1.000000E+00           
       1072  alphaPorosity_1072      c     0.000000E+00     4.932847E-01     1.000000E+00           
       1073  alphaPorosity_1073      c     0.000000E+00     4.939326E-01     1.000000E+00           
       1074  alphaPorosity_1074      c     0.000000E+00     4.944874E-01     1.000000E+00           
       1075  alphaPorosity_1075      c     0.000000E+00     4.949653E-01     1.000000E+00           
       1076  alphaPorosity_1076      c     0.000000E+00     4.953791E-01     1.000000E+00           
       1077  alphaPorosity_1077      c     0.000000E+00     4.957396E-01     1.000000E+00           
       1078  alphaPorosity_1078      c     0.000000E+00     4.960557E-01     1.000000E+00           
       1079  alphaPorosity_1079      c     0.000000E+00     4.963348E-01     1.000000E+00           
       1080  alphaPorosity_1080      c     0.000000E+00     3.316678E-01     1.000000E+00           
       1081  alphaPorosity_1081      c     0.000000E+00     1.353356E-02     1.000000E+00           
       1082  alphaPorosity_1082      c     0.000000E+00     4.129228E-01     1.000000E+00           
       1083  alphaPorosity_1083      c     0.000000E+00     4.282537E-01     1.000000E+00           
       1084  alphaPorosity_1084      c     0.000000E+00     4.541253E-01     1.000000E+00           
       1085  alphaPorosity_1085      c     0.000000E+00     4.639426E-01     1.000000E+00           
       1086  alphaPorosity_1086      c     0.000000E+00     4.709803E-01     1.000000E+00           
       1087  alphaPorosity_1087      c     0.000000E+00     4.760591E-01     1.000000E+00           
       1088  alphaPorosity_1088      c     0.000000E+00     4.799457E-01     1.000000E+00           
       1089  alphaPorosity_1089      c     0.000000E+00     4.829936E-01     1.000000E+00           
       1090  alphaPorosity_1090      c     0.000000E+00     4.854267E-01     1.000000E+00           
       1091  alphaPorosity_1091      c     0.000000E+00     4.873950E-01     1.000000E+00           
       1092  alphaPorosity_1092      c     0.000000E+00     4.890052E-01     1.000000E+00           
       1093  alphaPorosity_1093      c     0.000000E+00     4.903350E-01     1.000000E+00           
       1094  alphaPorosity_1094      c     0.000000E+00     4.914423E-01     1.000000E+00           
       1095  alphaPorosity_1095      c     0.000000E+00     4.923711E-01     1.000000E+00           
       1096  alphaPorosity_1096      c     0.000000E+00     4.931555E-01     1.000000E+00           
       1097  alphaPorosity_1097      c     0.000000E+00     4.938222E-01     1.000000E+00           
       1098  alphaPorosity_1098      c     0.000000E+00     4.943922E-01     1.000000E+00           
       1099  alphaPorosity_1099      c     0.000000E+00     4.948826E-01     1.000000E+00           
       1100  alphaPorosity_1100      c     0.000000E+00     4.953070E-01     1.000000E+00           
       1101  alphaPorosity_1101      c     0.000000E+00     4.956767E-01     1.000000E+00           
       1102  alphaPorosity_1102      c     0.000000E+00     4.960010E-01     1.000000E+00           
       1103  alphaPorosity_1103      c     0.000000E+00     4.962876E-01     1.000000E+00           
       1104  alphaPorosity_1104      c     0.000000E+00     3.429998E-01     1.000000E+00           
       1105  alphaPorosity_1105      c     0.000000E+00     2.425713E-02     1.000000E+00           
       1106  alphaPorosity_1106      c     0.000000E+00     4.535210E-01     1.000000E+00           
       1107  alphaPorosity_1107      c     0.000000E+00     4.182798E-01     1.000000E+00           
       1108  alphaPorosity_1108      c     0.000000E+00     4.507709E-01     1.000000E+00           
       1109  alphaPorosity_1109      c     0.000000E+00     4.609782E-01     1.000000E+00           
       1110  alphaPorosity_1110      c     0.000000E+00     4.691910E-01     1.000000E+00           
       1111  alphaPorosity_1111      c     0.000000E+00     4.749260E-01     1.000000E+00           
       1112  alphaPorosity_1112      c     0.000000E+00     4.792108E-01     1.000000E+00           
       1113  alphaPorosity_1113      c     0.000000E+00     4.824960E-01     1.000000E+00           
       1114  alphaPorosity_1114      c     0.000000E+00     4.850751E-01     1.000000E+00           
       1115  alphaPorosity_1115      c     0.000000E+00     4.871366E-01     1.000000E+00           
       1116  alphaPorosity_1116      c     0.000000E+00     4.888084E-01     1.000000E+00           
       1117  alphaPorosity_1117      c     0.000000E+00     4.901804E-01     1.000000E+00           
       1118  alphaPorosity_1118      c     0.000000E+00     4.913177E-01     1.000000E+00           
       1119  alphaPorosity_1119      c     0.000000E+00     4.922685E-01     1.000000E+00           
       1120  alphaPorosity_1120      c     0.000000E+00     4.930695E-01     1.000000E+00           
       1121  alphaPorosity_1121      c     0.000000E+00     4.937491E-01     1.000000E+00           
       1122  alphaPorosity_1122      c     0.000000E+00     4.943294E-01     1.000000E+00           
       1123  alphaPorosity_1123      c     0.000000E+00     4.948283E-01     1.000000E+00           
       1124  alphaPorosity_1124      c     0.000000E+00     4.952599E-01     1.000000E+00           
       1125  alphaPorosity_1125      c     0.000000E+00     4.956358E-01     1.000000E+00           
       1126  alphaPorosity_1126      c     0.000000E+00     4.959656E-01     1.000000E+00           
       1127  alphaPorosity_1127      c     0.000000E+00     4.962572E-01     1.000000E+00           
       1128  alphaPorosity_1128      c     0.000000E+00     3.735294E-01     1.000000E+00           
       1129  alphaPorosity_1129      c     0.000000E+00     4.540244E-02     1.000000E+00           
       1130  alphaPorosity_1130      c     0.000000E+00     4.587054E-01     1.000000E+00           
       1131  alphaPorosity_1131      c     0.000000E+00     4.198079E-01     1.000000E+00           
       1132  alphaPorosity_1132      c     0.000000E+00     4.509649E-01     1.000000E+00           
       1133  alphaPorosity_1133      c     0.000000E+00     4.610564E-01     1.000000E+00           
       1134  alphaPorosity_1134      c     0.000000E+00     4.693948E-01     1.000000E+00           
       1135  alphaPorosity_1135      c     0.000000E+00     4.752063E-01     1.000000E+00           
       1136  alphaPorosity_1136      c     0.000000E+00     4.795246E-01     1.000000E+00           
       1137  alphaPorosity_1137      c     0.000000E+00     4.828110E-01     1.000000E+00           
       1138  alphaPorosity_1138      c     0.000000E+00     4.853746E-01     1.000000E+00           
       1139  alphaPorosity_1139      c     0.000000E+00     4.874135E-01     1.000000E+00           
       1140  alphaPorosity_1140      c     0.000000E+00     4.890608E-01     1.000000E+00           
       1141  alphaPorosity_1141      c     0.000000E+00     4.904090E-01     1.000000E+00           
       1142  alphaPorosity_1142      c     0.000000E+00     4.915244E-01     1.000000E+00           
       1143  alphaPorosity_1143      c     0.000000E+00     4.924556E-01     1.000000E+00           
       1144  alphaPorosity_1144      c     0.000000E+00     4.932394E-01     1.000000E+00           
       1145  alphaPorosity_1145      c     0.000000E+00     4.939039E-01     1.000000E+00           
       1146  alphaPorosity_1146      c     0.000000E+00     4.944712E-01     1.000000E+00           
       1147  alphaPorosity_1147      c     0.000000E+00     4.949586E-01     1.000000E+00           
       1148  alphaPorosity_1148      c     0.000000E+00     4.953804E-01     1.000000E+00           
       1149  alphaPorosity_1149      c     0.000000E+00     4.957477E-01     1.000000E+00           
       1150  alphaPorosity_1150      c     0.000000E+00     4.960701E-01     1.000000E+00           
       1151  alphaPorosity_1151      c     0.000000E+00     4.963551E-01     1.000000E+00           


   Exit Status
      Inform  Description
          -1  Maximum Iterations Exceeded
--------------------------------------------------------------------------------

/home/dafoamuser/dafoam/packages/miniconda3/lib/python3.8/site-packages/dafoam/pyDAFoam.py:3711: ComplexWarning: Casting complex values to real discards the imaginary part
  self.solver.setFieldValue4GlobalCellI(fieldName, val, globalCellI, compI)
Finalising parallel run
Finalising parallel run
